* NGSPICE file created from frigate_timing_frontend.ext - technology: sky130A

.subckt sky130_fd_pr__nfet_g5v0d10v5_6XHUDR a_n242_n264# a_50_n42# a_n108_n42# a_n50_n130#
X0 a_50_n42# a_n50_n130# a_n108_n42# a_n242_n264# sky130_fd_pr__nfet_g5v0d10v5 ad=0.1218 pd=1.42 as=0.1218 ps=1.42 w=0.42 l=0.5
.ends

.subckt sky130_fd_pr__pfet_g5v0d10v5_6ELFTH a_50_n42# a_n50_n139# w_n308_n339# a_n108_n42#
X0 a_50_n42# a_n50_n139# a_n108_n42# w_n308_n339# sky130_fd_pr__pfet_g5v0d10v5 ad=0.1218 pd=1.42 as=0.1218 ps=1.42 w=0.42 l=0.5
.ends

.subckt sky130_fd_pr__nfet_01v8_L7BSKG a_n73_n11# a_n33_n99# a_15_n11# a_n175_n185#
X0 a_15_n11# a_n33_n99# a_n73_n11# a_n175_n185# sky130_fd_pr__nfet_01v8 ad=0.1218 pd=1.42 as=0.1218 ps=1.42 w=0.42 l=0.15
.ends

.subckt sky130_fd_pr__pfet_01v8_LGS3BL a_n73_n64# a_n33_n161# a_15_n64# w_n211_n284#
X0 a_15_n64# a_n33_n161# a_n73_n64# w_n211_n284# sky130_fd_pr__pfet_01v8 ad=0.29 pd=2.58 as=0.29 ps=2.58 w=1 l=0.15
.ends

.subckt sky130_fd_pr__nfet_01v8_64Z3AY a_15_n131# a_n175_n243# a_n33_91# a_n73_n131#
X0 a_15_n131# a_n33_91# a_n73_n131# a_n175_n243# sky130_fd_pr__nfet_01v8 ad=0.29 pd=2.58 as=0.29 ps=2.58 w=1 l=0.15
.ends

.subckt rc_osc_level_shifter out_h outb_h in_l dvss inb_l avss dvdd avdd
XXM15 outb_h out_h avdd m1_1336_n1198# sky130_fd_pr__pfet_g5v0d10v5_6ELFTH
XXM16 avdd outb_h avdd m1_1336_n1198# sky130_fd_pr__pfet_g5v0d10v5_6ELFTH
XXM17 avss outb_h avss in_l sky130_fd_pr__nfet_g5v0d10v5_6XHUDR
XXM18 avss avss out_h inb_l sky130_fd_pr__nfet_g5v0d10v5_6XHUDR
XXM19 m1_2204_n1198# out_h avdd avdd sky130_fd_pr__pfet_g5v0d10v5_6ELFTH
XXM7 dvdd in_l inb_l dvdd sky130_fd_pr__pfet_01v8_LGS3BL
XXM8 inb_l dvss in_l dvss sky130_fd_pr__nfet_01v8_64Z3AY
XXM20 m1_2204_n1198# outb_h avdd out_h sky130_fd_pr__pfet_g5v0d10v5_6ELFTH
.ends

.subckt sky130_fd_pr__nfet_01v8_L9WNCD a_15_n19# a_n175_n193# a_n73_n19# a_n33_n107#
X0 a_15_n19# a_n33_n107# a_n73_n19# a_n175_n193# sky130_fd_pr__nfet_01v8 ad=0.145 pd=1.58 as=0.145 ps=1.58 w=0.5 l=0.15
.ends

.subckt sky130_fd_pr__diode_pw2nd_05v5_FT76RJ__1 a_n147_n147# a_n45_n45#
X0 a_n147_n147# a_n45_n45# sky130_fd_pr__diode_pw2nd_05v5 perim=1.8e+06 area=2.025e+11
.ends

.subckt sky130_fd_pr__pfet_01v8_856REK a_63_n150# a_15_181# w_n263_n369# a_n81_n247#
+ a_n125_n150#
X0 a_63_n150# a_15_181# a_n33_n150# w_n263_n369# sky130_fd_pr__pfet_01v8 ad=0.465 pd=3.62 as=0.2475 ps=1.83 w=1.5 l=0.15
X1 a_n33_n150# a_n81_n247# a_n125_n150# w_n263_n369# sky130_fd_pr__pfet_01v8 ad=0.2475 pd=1.83 as=0.465 ps=3.62 w=1.5 l=0.15
.ends

.subckt sky130_fd_pr__res_xhigh_po_0p35_NVJ5PF a_2372_n1166# a_3700_n1166# a_n2276_734#
+ a_n1944_n1166# a_n3272_734# a_n3438_n1166# a_n782_n1166# a_1376_n1166# a_1542_734#
+ a_4696_734# a_2704_n1166# a_546_n1166# a_546_734# a_1708_n1166# a_n1114_734# a_n4268_734#
+ a_n118_734# a_2538_734# a_n2110_734# a_n2442_n1166# a_3534_734# a_3202_n1166# a_n1446_n1166#
+ a_4530_734# a_n284_n1166# a_4696_n1166# a_n3106_734# a_2206_n1166# a_n4102_734#
+ a_1874_734# a_n616_n1166# a_n450_734# a_2870_734# a_878_734# a_1210_n1166# a_n1446_734#
+ a_n4766_n1166# a_n2442_734# a_3866_734# a_4198_n1166# a_4862_734# a_878_n1166# a_n118_n1166#
+ a_712_734# a_n3438_734# a_n3770_n1166# a_1708_734# a_n4434_734# a_2704_734# a_4530_n1166#
+ a_n2774_n1166# a_n782_734# a_3700_734# a_n4268_n1166# a_n5062_n1296# a_3534_n1166#
+ a_n1778_n1166# a_n1778_734# a_n2774_734# a_2538_n1166# a_n3770_734# a_n3272_n1166#
+ a_n4600_n1166# a_n948_n1166# a_1044_734# a_380_n1166# a_4198_734# a_4032_n1166#
+ a_n2276_n1166# a_2040_734# a_n3604_n1166# a_n1612_734# a_1542_n1166# a_n4766_734#
+ a_n616_734# a_712_n1166# a_3036_n1166# a_n2608_n1166# a_3036_734# a_n1280_n1166#
+ a_n2608_734# a_4032_734# a_n3604_734# a_n4102_n1166# a_48_734# a_2040_n1166# a_n1612_n1166#
+ a_n4600_734# a_380_734# a_4862_n1166# a_n450_n1166# a_n3106_n1166# a_1044_n1166#
+ a_1376_734# a_214_n1166# a_2372_734# a_3866_n1166# a_n1944_734# a_n948_734# a_n2940_734#
+ a_n2110_n1166# a_3368_734# a_n4932_n1166# a_n1114_n1166# a_1210_734# a_2870_n1166#
+ a_4364_734# a_n3936_734# a_4364_n1166# a_n3936_n1166# a_214_734# a_n4932_734# a_1874_n1166#
+ a_3368_n1166# a_2206_734# a_48_n1166# a_n1280_734# a_n284_734# a_3202_734# a_n2940_n1166#
+ a_n4434_n1166#
X0 a_n450_734# a_n450_n1166# a_n5062_n1296# sky130_fd_pr__res_xhigh_po_0p35 l=7.5
X1 a_48_734# a_48_n1166# a_n5062_n1296# sky130_fd_pr__res_xhigh_po_0p35 l=7.5
X2 a_2206_734# a_2206_n1166# a_n5062_n1296# sky130_fd_pr__res_xhigh_po_0p35 l=7.5
X3 a_n4766_734# a_n4766_n1166# a_n5062_n1296# sky130_fd_pr__res_xhigh_po_0p35 l=7.5
X4 a_712_734# a_712_n1166# a_n5062_n1296# sky130_fd_pr__res_xhigh_po_0p35 l=7.5
X5 a_1874_734# a_1874_n1166# a_n5062_n1296# sky130_fd_pr__res_xhigh_po_0p35 l=7.5
X6 a_n3272_734# a_n3272_n1166# a_n5062_n1296# sky130_fd_pr__res_xhigh_po_0p35 l=7.5
X7 a_n1612_734# a_n1612_n1166# a_n5062_n1296# sky130_fd_pr__res_xhigh_po_0p35 l=7.5
X8 a_n3770_734# a_n3770_n1166# a_n5062_n1296# sky130_fd_pr__res_xhigh_po_0p35 l=7.5
X9 a_n782_734# a_n782_n1166# a_n5062_n1296# sky130_fd_pr__res_xhigh_po_0p35 l=7.5
X10 a_n2276_734# a_n2276_n1166# a_n5062_n1296# sky130_fd_pr__res_xhigh_po_0p35 l=7.5
X11 a_n118_734# a_n118_n1166# a_n5062_n1296# sky130_fd_pr__res_xhigh_po_0p35 l=7.5
X12 a_4696_734# a_4696_n1166# a_n5062_n1296# sky130_fd_pr__res_xhigh_po_0p35 l=7.5
X13 a_n4434_734# a_n4434_n1166# a_n5062_n1296# sky130_fd_pr__res_xhigh_po_0p35 l=7.5
X14 a_1542_734# a_1542_n1166# a_n5062_n1296# sky130_fd_pr__res_xhigh_po_0p35 l=7.5
X15 a_n1280_734# a_n1280_n1166# a_n5062_n1296# sky130_fd_pr__res_xhigh_po_0p35 l=7.5
X16 a_3700_734# a_3700_n1166# a_n5062_n1296# sky130_fd_pr__res_xhigh_po_0p35 l=7.5
X17 a_n3438_734# a_n3438_n1166# a_n5062_n1296# sky130_fd_pr__res_xhigh_po_0p35 l=7.5
X18 a_2704_734# a_2704_n1166# a_n5062_n1296# sky130_fd_pr__res_xhigh_po_0p35 l=7.5
X19 a_4364_734# a_4364_n1166# a_n5062_n1296# sky130_fd_pr__res_xhigh_po_0p35 l=7.5
X20 a_n948_734# a_n948_n1166# a_n5062_n1296# sky130_fd_pr__res_xhigh_po_0p35 l=7.5
X21 a_1210_734# a_1210_n1166# a_n5062_n1296# sky130_fd_pr__res_xhigh_po_0p35 l=7.5
X22 a_n4102_734# a_n4102_n1166# a_n5062_n1296# sky130_fd_pr__res_xhigh_po_0p35 l=7.5
X23 a_3368_734# a_3368_n1166# a_n5062_n1296# sky130_fd_pr__res_xhigh_po_0p35 l=7.5
X24 a_1708_734# a_1708_n1166# a_n5062_n1296# sky130_fd_pr__res_xhigh_po_0p35 l=7.5
X25 a_n3106_734# a_n3106_n1166# a_n5062_n1296# sky130_fd_pr__res_xhigh_po_0p35 l=7.5
X26 a_n2774_734# a_n2774_n1166# a_n5062_n1296# sky130_fd_pr__res_xhigh_po_0p35 l=7.5
X27 a_n616_734# a_n616_n1166# a_n5062_n1296# sky130_fd_pr__res_xhigh_po_0p35 l=7.5
X28 a_380_734# a_380_n1166# a_n5062_n1296# sky130_fd_pr__res_xhigh_po_0p35 l=7.5
X29 a_4032_734# a_4032_n1166# a_n5062_n1296# sky130_fd_pr__res_xhigh_po_0p35 l=7.5
X30 a_n2110_734# a_n2110_n1166# a_n5062_n1296# sky130_fd_pr__res_xhigh_po_0p35 l=7.5
X31 a_878_734# a_878_n1166# a_n5062_n1296# sky130_fd_pr__res_xhigh_po_0p35 l=7.5
X32 a_n4932_734# a_n4932_n1166# a_n5062_n1296# sky130_fd_pr__res_xhigh_po_0p35 l=7.5
X33 a_3036_734# a_3036_n1166# a_n5062_n1296# sky130_fd_pr__res_xhigh_po_0p35 l=7.5
X34 a_n1778_734# a_n1778_n1166# a_n5062_n1296# sky130_fd_pr__res_xhigh_po_0p35 l=7.5
X35 a_n3936_734# a_n3936_n1166# a_n5062_n1296# sky130_fd_pr__res_xhigh_po_0p35 l=7.5
X36 a_n2442_734# a_n2442_n1166# a_n5062_n1296# sky130_fd_pr__res_xhigh_po_0p35 l=7.5
X37 a_4862_734# a_4862_n1166# a_n5062_n1296# sky130_fd_pr__res_xhigh_po_0p35 l=7.5
X38 a_n4600_734# a_n4600_n1166# a_n5062_n1296# sky130_fd_pr__res_xhigh_po_0p35 l=7.5
X39 a_n2940_734# a_n2940_n1166# a_n5062_n1296# sky130_fd_pr__res_xhigh_po_0p35 l=7.5
X40 a_546_734# a_546_n1166# a_n5062_n1296# sky130_fd_pr__res_xhigh_po_0p35 l=7.5
X41 a_n1446_734# a_n1446_n1166# a_n5062_n1296# sky130_fd_pr__res_xhigh_po_0p35 l=7.5
X42 a_3866_734# a_3866_n1166# a_n5062_n1296# sky130_fd_pr__res_xhigh_po_0p35 l=7.5
X43 a_n3604_734# a_n3604_n1166# a_n5062_n1296# sky130_fd_pr__res_xhigh_po_0p35 l=7.5
X44 a_2372_734# a_2372_n1166# a_n5062_n1296# sky130_fd_pr__res_xhigh_po_0p35 l=7.5
X45 a_4530_734# a_4530_n1166# a_n5062_n1296# sky130_fd_pr__res_xhigh_po_0p35 l=7.5
X46 a_n4268_734# a_n4268_n1166# a_n5062_n1296# sky130_fd_pr__res_xhigh_po_0p35 l=7.5
X47 a_n2608_734# a_n2608_n1166# a_n5062_n1296# sky130_fd_pr__res_xhigh_po_0p35 l=7.5
X48 a_214_734# a_214_n1166# a_n5062_n1296# sky130_fd_pr__res_xhigh_po_0p35 l=7.5
X49 a_1376_734# a_1376_n1166# a_n5062_n1296# sky130_fd_pr__res_xhigh_po_0p35 l=7.5
X50 a_n1114_734# a_n1114_n1166# a_n5062_n1296# sky130_fd_pr__res_xhigh_po_0p35 l=7.5
X51 a_3534_734# a_3534_n1166# a_n5062_n1296# sky130_fd_pr__res_xhigh_po_0p35 l=7.5
X52 a_n284_734# a_n284_n1166# a_n5062_n1296# sky130_fd_pr__res_xhigh_po_0p35 l=7.5
X53 a_2040_734# a_2040_n1166# a_n5062_n1296# sky130_fd_pr__res_xhigh_po_0p35 l=7.5
X54 a_4198_734# a_4198_n1166# a_n5062_n1296# sky130_fd_pr__res_xhigh_po_0p35 l=7.5
X55 a_2538_734# a_2538_n1166# a_n5062_n1296# sky130_fd_pr__res_xhigh_po_0p35 l=7.5
X56 a_1044_734# a_1044_n1166# a_n5062_n1296# sky130_fd_pr__res_xhigh_po_0p35 l=7.5
X57 a_n1944_734# a_n1944_n1166# a_n5062_n1296# sky130_fd_pr__res_xhigh_po_0p35 l=7.5
X58 a_3202_734# a_3202_n1166# a_n5062_n1296# sky130_fd_pr__res_xhigh_po_0p35 l=7.5
X59 a_2870_734# a_2870_n1166# a_n5062_n1296# sky130_fd_pr__res_xhigh_po_0p35 l=7.5
.ends

.subckt sky130_fd_pr__pfet_01v8_2Z69BZ w_n211_n226# a_n73_n6# a_15_n6# a_n33_n103#
X0 a_15_n6# a_n33_n103# a_n73_n6# w_n211_n226# sky130_fd_pr__pfet_01v8 ad=0.1218 pd=1.42 as=0.1218 ps=1.42 w=0.42 l=0.15
.ends

.subckt sky130_fd_pr__pfet_g5v0d10v5_T537S5 a_n50_n223# w_n308_n423# a_50_n126# a_n108_n126#
X0 a_50_n126# a_n50_n223# a_n108_n126# w_n308_n423# sky130_fd_pr__pfet_g5v0d10v5 ad=0.3654 pd=3.1 as=0.3654 ps=3.1 w=1.26 l=0.5
.ends

.subckt sky130_ef_ip__rc_osc_16M avdd dvdd ena dout avss dvss
XXM12 avss m1_6428_4585# avss m1_2993_5163# sky130_fd_pr__nfet_g5v0d10v5_6XHUDR
XXM34 avdd m1_1507_5567# avdd m1_1507_5567# sky130_fd_pr__pfet_g5v0d10v5_6ELFTH
XXM23 avss m1_5241_4130# m1_513_6590# rc_osc_level_shifter_0/out_h sky130_fd_pr__nfet_g5v0d10v5_6XHUDR
XXM35 dout rc_osc_level_shifter_0/inb_l dvss dvss sky130_fd_pr__nfet_01v8_L7BSKG
XXM13 avss m1_6642_4785# m1_6428_4585# ena sky130_fd_pr__nfet_g5v0d10v5_6XHUDR
XXM25 avdd m1_1507_5567# avdd m1_3601_5653# sky130_fd_pr__pfet_g5v0d10v5_6ELFTH
XXM24 avdd m1_1507_5567# avdd m1_2985_5653# sky130_fd_pr__pfet_g5v0d10v5_6ELFTH
XXM36 avss m1_2561_4188# m1_1507_5567# rc_osc_level_shifter_0/out_h sky130_fd_pr__nfet_g5v0d10v5_6XHUDR
XXM26 avdd m1_1507_5567# avdd m1_4217_5653# sky130_fd_pr__pfet_g5v0d10v5_6ELFTH
XXM15 m1_2993_5163# m1_4789_4781# avdd m1_5449_5653# sky130_fd_pr__pfet_g5v0d10v5_6ELFTH
XXM16 avss m1_2993_5163# m1_5128_4639# m1_4789_4781# sky130_fd_pr__nfet_g5v0d10v5_6XHUDR
XXM27 avss m1_4016_4639# avss m1_5241_4130# sky130_fd_pr__nfet_g5v0d10v5_6XHUDR
XXM17 avdd m1_1507_5567# avdd m1_4833_5653# sky130_fd_pr__pfet_g5v0d10v5_6ELFTH
XXM28 avss m1_3460_4639# avss m1_5241_4130# sky130_fd_pr__nfet_g5v0d10v5_6XHUDR
Xrc_osc_level_shifter_0 rc_osc_level_shifter_0/out_h rc_osc_level_shifter_0/outb_h
+ ena dvss rc_osc_level_shifter_0/inb_l avss dvdd avdd rc_osc_level_shifter
XXM18 avdd m1_1507_5567# avdd m1_1507_5567# sky130_fd_pr__pfet_g5v0d10v5_6ELFTH
XXM29 avss m1_2904_4639# avss m1_5241_4130# sky130_fd_pr__nfet_g5v0d10v5_6XHUDR
XXM19 avss m1_5128_4639# avss m1_5241_4130# sky130_fd_pr__nfet_g5v0d10v5_6XHUDR
XXM1 avss m1_3128_4787# m1_2904_4639# m1_2993_5163# sky130_fd_pr__nfet_g5v0d10v5_6XHUDR
XXM2 m1_3128_4787# m1_2993_5163# avdd m1_2985_5653# sky130_fd_pr__pfet_g5v0d10v5_6ELFTH
XXM3 m1_3679_4781# m1_3128_4787# avdd m1_3601_5653# sky130_fd_pr__pfet_g5v0d10v5_6ELFTH
XXM4 avss m1_3679_4781# m1_3460_4639# m1_3128_4787# sky130_fd_pr__nfet_g5v0d10v5_6XHUDR
Xsky130_fd_pr__nfet_01v8_L9WNCD_0 dout dvss dvss m1_6642_4785# sky130_fd_pr__nfet_01v8_L9WNCD
XD3 dvss ena sky130_fd_pr__diode_pw2nd_05v5_FT76RJ__1
XXM7 m1_4789_4781# m1_4235_4789# avdd m1_4833_5653# sky130_fd_pr__pfet_g5v0d10v5_6ELFTH
XXM9 m1_4235_4789# m1_3679_4781# avdd m1_4217_5653# sky130_fd_pr__pfet_g5v0d10v5_6ELFTH
XXM8 avss m1_4789_4781# m1_4572_4639# m1_4235_4789# sky130_fd_pr__nfet_g5v0d10v5_6XHUDR
Xsky130_fd_pr__pfet_g5v0d10v5_6ELFTH_0 avdd m1_1507_5567# avdd m1_1507_5567# sky130_fd_pr__pfet_g5v0d10v5_6ELFTH
Xsky130_fd_pr__pfet_01v8_856REK_0 dout rc_osc_level_shifter_0/inb_l dvdd m1_6642_4785#
+ dvdd sky130_fd_pr__pfet_01v8_856REK
Xsky130_fd_pr__pfet_g5v0d10v5_6ELFTH_1 avdd m1_1507_5567# avdd m1_1507_5567# sky130_fd_pr__pfet_g5v0d10v5_6ELFTH
Xsky130_fd_pr__res_xhigh_po_0p35_NVJ5PF_0 m1_7838_1218# m1_9166_1218# m1_3024_3118#
+ m1_3522_1218# m1_2028_3118# m1_1862_1218# m1_4518_1218# m1_6842_1218# m1_7008_3118#
+ m1_9996_3118# m1_8170_1218# m1_5846_1218# m1_6012_3118# m1_7174_1218# m1_4352_3118#
+ m1_1032_3118# m1_5348_3118# m1_8004_3118# m1_3356_3118# m1_2858_1218# m1_9000_3118#
+ m1_8502_1218# m1_3854_1218# m1_9996_3118# m1_5182_1218# m1_10162_1218# m1_2360_3118#
+ m1_7506_1218# m1_1364_3118# m1_7340_3118# m1_4850_1218# m1_5016_3118# m1_8336_3118#
+ m1_6344_3118# m1_6510_1218# m1_4020_3118# m1_534_1218# m1_3024_3118# m1_9332_3118#
+ m1_9498_1218# m1_9378_4056# m1_6178_1218# m1_5182_1218# m1_6012_3118# m1_2028_3118#
+ m1_1530_1218# m1_7008_3118# m1_1032_3118# m1_8004_3118# m1_9830_1218# m1_2526_1218#
+ m1_4684_3118# m1_9000_3118# m1_1198_1218# avss m1_8834_1218# m1_3522_1218# m1_3688_3118#
+ m1_2692_3118# m1_7838_1218# m1_1696_3118# m1_2194_1218# m1_866_1218# m1_4518_1218#
+ m1_6344_3118# m1_5846_1218# m1_9664_3118# m1_9498_1218# m1_3190_1218# m1_7340_3118#
+ m1_1862_1218# m1_3688_3118# m1_6842_1218# m1_700_3118# m1_4684_3118# m1_6178_1218#
+ m1_8502_1218# m1_2858_1218# m1_8336_3118# m1_4186_1218# m1_2692_3118# m1_9332_3118#
+ m1_1696_3118# m1_1198_1218# m1_5348_3118# m1_7506_1218# m1_3854_1218# m1_700_3118#
+ m1_5680_3118# m1_10162_1218# m1_4850_1218# m1_2194_1218# m1_6510_1218# m1_6676_3118#
+ m1_5514_1218# m1_7672_3118# m1_9166_1218# m1_3356_3118# m1_4352_3118# m1_2360_3118#
+ m1_3190_1218# m1_8668_3118# m1_534_1218# m1_4186_1218# m1_6676_3118# m1_8170_1218#
+ m1_9664_3118# m1_1364_3118# m1_9830_1218# m1_1530_1218# m1_5680_3118# avdd m1_7174_1218#
+ m1_8834_1218# m1_7672_3118# m1_5514_1218# m1_4020_3118# m1_5016_3118# m1_8668_3118#
+ m1_2526_1218# m1_866_1218# sky130_fd_pr__res_xhigh_po_0p35_NVJ5PF
Xsky130_fd_pr__res_xhigh_po_0p35_NVJ5PF_1 m1_7652_7168# m1_8980_7168# m1_3170_9068#
+ m1_3336_7168# m1_2174_9068# m1_2008_7168# m1_4664_7168# m1_6656_7168# m1_6822_9068#
+ m1_10142_9068# m1_7984_7168# m1_5992_7168# m1_5826_9068# m1_6988_7168# m1_4166_9068#
+ m1_1178_9068# m1_5162_9068# m1_7818_9068# m1_3170_9068# m1_3004_7168# m1_8814_9068#
+ m1_8648_7168# m1_4000_7168# m1_9810_9068# m1_4996_7168# m1_9976_7168# m1_2174_9068#
+ m1_7652_7168# m1_1178_9068# m1_7154_9068# m1_4664_7168# m1_4830_9068# m1_8150_9068#
+ m1_6158_9068# m1_6656_7168# m1_3834_9068# m1_680_7168# avdd m1_9146_9068# m1_9644_7168#
+ m1_10142_9068# m1_6324_7168# m1_5328_7168# m1_6158_9068# m1_1842_9068# m1_1676_7168#
+ m1_7154_9068# m1_846_9068# m1_8150_9068# m1_9976_7168# m1_2672_7168# m1_4498_9068#
+ m1_9146_9068# m1_1012_7168# avss m1_8980_7168# m1_3668_7168# m1_3502_9068# m1_2506_9068#
+ m1_7984_7168# m1_1510_9068# m1_2008_7168# m1_680_7168# m1_4332_7168# m1_6490_9068#
+ m1_5660_7168# m1_9478_9068# m1_9312_7168# m1_3004_7168# m1_7486_9068# m1_1676_7168#
+ m1_3834_9068# m1_6988_7168# m1_514_9068# m1_4830_9068# m1_5992_7168# m1_8316_7168#
+ m1_2672_7168# m1_8482_9068# m1_4000_7168# avdd m1_9478_9068# m1_1842_9068# m1_1344_7168#
+ m1_5494_9068# m1_7320_7168# m1_3668_7168# m1_846_9068# m1_5826_9068# m1_9378_4056#
+ m1_4996_7168# m1_2340_7168# m1_6324_7168# m1_6822_9068# m1_5660_7168# m1_7818_9068#
+ m1_9312_7168# m1_3502_9068# m1_4498_9068# m1_2506_9068# m1_3336_7168# m1_8814_9068#
+ m1_513_6590# m1_4332_7168# m1_6490_9068# m1_8316_7168# m1_9810_9068# m1_1510_9068#
+ m1_9644_7168# m1_1344_7168# m1_5494_9068# m1_514_9068# m1_7320_7168# m1_8648_7168#
+ m1_7486_9068# m1_5328_7168# m1_4166_9068# m1_5162_9068# m1_8482_9068# m1_2340_7168#
+ m1_1012_7168# sky130_fd_pr__res_xhigh_po_0p35_NVJ5PF
Xsky130_fd_pr__pfet_g5v0d10v5_6ELFTH_2 m1_1507_5567# m1_1507_5567# avdd avdd sky130_fd_pr__pfet_g5v0d10v5_6ELFTH
Xsky130_fd_pr__pfet_g5v0d10v5_6ELFTH_3 avdd rc_osc_level_shifter_0/out_h avdd m1_1507_5567#
+ sky130_fd_pr__pfet_g5v0d10v5_6ELFTH
Xsky130_fd_pr__pfet_01v8_2Z69BZ_0 dvdd m1_6642_4785# dvdd ena sky130_fd_pr__pfet_01v8_2Z69BZ
Xsky130_fd_pr__pfet_g5v0d10v5_6ELFTH_5 avdd m1_1507_5567# avdd m1_5449_5653# sky130_fd_pr__pfet_g5v0d10v5_6ELFTH
Xsky130_fd_pr__pfet_g5v0d10v5_6ELFTH_4 m1_1507_5567# m1_1507_5567# avdd avdd sky130_fd_pr__pfet_g5v0d10v5_6ELFTH
Xsky130_fd_pr__pfet_g5v0d10v5_T537S5_0 m1_2993_5163# avdd m1_6642_4785# dvdd sky130_fd_pr__pfet_g5v0d10v5_T537S5
XXM30 avss m1_2561_4188# avss m1_5241_4130# sky130_fd_pr__nfet_g5v0d10v5_6XHUDR
XXM20 avss m1_4572_4639# avss m1_5241_4130# sky130_fd_pr__nfet_g5v0d10v5_6XHUDR
XXM10 avss m1_4235_4789# m1_4016_4639# m1_3679_4781# sky130_fd_pr__nfet_g5v0d10v5_6XHUDR
XXM21 avss m1_5241_4130# avss m1_5241_4130# sky130_fd_pr__nfet_g5v0d10v5_6XHUDR
XXM33 avss m1_5241_4130# avss rc_osc_level_shifter_0/outb_h sky130_fd_pr__nfet_g5v0d10v5_6XHUDR
.ends

.subckt sky130_fd_pr__cap_mim_m3_2_KB5CJD m4_n1349_n1080# c2_n1269_n1000#
X0 c2_n1269_n1000# m4_n1349_n1080# sky130_fd_pr__cap_mim_m3_2 l=10 w=10
.ends

.subckt sky130_fd_pr__res_xhigh_po_0p35_WHP78W a_131_6584# a_n367_6584# a_n1031_n7016#
+ a_961_n7016# a_n201_n7016# a_n699_n7016# a_n865_6584# a_463_n7016# a_463_6584# a_n699_6584#
+ a_n1197_6584# a_297_6584# a_1127_n7016# a_n533_n7016# a_961_6584# a_n35_n7016# a_795_n7016#
+ a_795_6584# a_n201_6584# a_629_6584# a_297_n7016# a_629_n7016# a_n35_6584# a_n865_n7016#
+ a_n1197_n7016# a_n367_n7016# a_n533_6584# a_n1327_n7146# a_131_n7016# a_n1031_6584#
+ a_1127_6584#
X0 a_n699_6584# a_n699_n7016# a_n1327_n7146# sky130_fd_pr__res_xhigh_po_0p35 l=66
X1 a_131_6584# a_131_n7016# a_n1327_n7146# sky130_fd_pr__res_xhigh_po_0p35 l=66
X2 a_n1197_6584# a_n1197_n7016# a_n1327_n7146# sky130_fd_pr__res_xhigh_po_0p35 l=66
X3 a_n533_6584# a_n533_n7016# a_n1327_n7146# sky130_fd_pr__res_xhigh_po_0p35 l=66
X4 a_1127_6584# a_1127_n7016# a_n1327_n7146# sky130_fd_pr__res_xhigh_po_0p35 l=66
X5 a_463_6584# a_463_n7016# a_n1327_n7146# sky130_fd_pr__res_xhigh_po_0p35 l=66
X6 a_629_6584# a_629_n7016# a_n1327_n7146# sky130_fd_pr__res_xhigh_po_0p35 l=66
X7 a_n1031_6584# a_n1031_n7016# a_n1327_n7146# sky130_fd_pr__res_xhigh_po_0p35 l=66
X8 a_n35_6584# a_n35_n7016# a_n1327_n7146# sky130_fd_pr__res_xhigh_po_0p35 l=66
X9 a_961_6584# a_961_n7016# a_n1327_n7146# sky130_fd_pr__res_xhigh_po_0p35 l=66
X10 a_n367_6584# a_n367_n7016# a_n1327_n7146# sky130_fd_pr__res_xhigh_po_0p35 l=66
X11 a_297_6584# a_297_n7016# a_n1327_n7146# sky130_fd_pr__res_xhigh_po_0p35 l=66
X12 a_n865_6584# a_n865_n7016# a_n1327_n7146# sky130_fd_pr__res_xhigh_po_0p35 l=66
X13 a_795_6584# a_795_n7016# a_n1327_n7146# sky130_fd_pr__res_xhigh_po_0p35 l=66
X14 a_n201_6584# a_n201_n7016# a_n1327_n7146# sky130_fd_pr__res_xhigh_po_0p35 l=66
.ends

.subckt sky130_fd_pr__res_xhigh_po_0p35_M35ED8 a_1210_n8616# a_546_8184# a_878_n8616#
+ a_n118_n8616# a_1210_8184# a_n450_8184# a_n1944_8184# a_n1778_n8616# a_1044_8184#
+ a_n284_8184# a_n948_n8616# a_n1778_8184# a_878_8184# a_380_n8616# a_1542_n8616#
+ a_712_n8616# a_2040_8184# a_n1280_n8616# a_2040_n8616# a_1542_8184# a_n118_8184#
+ a_n1612_n8616# a_n450_n8616# a_1044_n8616# a_214_n8616# a_n782_8184# a_1376_8184#
+ a_n1280_8184# a_n2110_n8616# a_380_8184# a_n1114_n8616# a_n616_8184# a_1874_n8616#
+ a_n1114_8184# a_48_n8616# a_214_8184# a_1874_8184# a_n1944_n8616# a_1376_n8616#
+ a_n782_n8616# a_546_n8616# a_n2110_8184# a_1708_n8616# a_1708_8184# a_48_8184# a_n1612_8184#
+ a_n1446_n8616# a_n2240_n8746# a_712_8184# a_n284_n8616# a_n948_8184# a_n616_n8616#
+ a_n1446_8184#
X0 a_n616_8184# a_n616_n8616# a_n2240_n8746# sky130_fd_pr__res_xhigh_po_0p35 l=82
X1 a_1044_8184# a_1044_n8616# a_n2240_n8746# sky130_fd_pr__res_xhigh_po_0p35 l=82
X2 a_546_8184# a_546_n8616# a_n2240_n8746# sky130_fd_pr__res_xhigh_po_0p35 l=82
X3 a_380_8184# a_380_n8616# a_n2240_n8746# sky130_fd_pr__res_xhigh_po_0p35 l=82
X4 a_n1114_8184# a_n1114_n8616# a_n2240_n8746# sky130_fd_pr__res_xhigh_po_0p35 l=82
X5 a_1708_8184# a_1708_n8616# a_n2240_n8746# sky130_fd_pr__res_xhigh_po_0p35 l=82
X6 a_1542_8184# a_1542_n8616# a_n2240_n8746# sky130_fd_pr__res_xhigh_po_0p35 l=82
X7 a_2040_8184# a_2040_n8616# a_n2240_n8746# sky130_fd_pr__res_xhigh_po_0p35 l=82
X8 a_n450_8184# a_n450_n8616# a_n2240_n8746# sky130_fd_pr__res_xhigh_po_0p35 l=82
X9 a_n284_8184# a_n284_n8616# a_n2240_n8746# sky130_fd_pr__res_xhigh_po_0p35 l=82
X10 a_n1612_8184# a_n1612_n8616# a_n2240_n8746# sky130_fd_pr__res_xhigh_po_0p35 l=82
X11 a_48_8184# a_48_n8616# a_n2240_n8746# sky130_fd_pr__res_xhigh_po_0p35 l=82
X12 a_n948_8184# a_n948_n8616# a_n2240_n8746# sky130_fd_pr__res_xhigh_po_0p35 l=82
X13 a_n782_8184# a_n782_n8616# a_n2240_n8746# sky130_fd_pr__res_xhigh_po_0p35 l=82
X14 a_1376_8184# a_1376_n8616# a_n2240_n8746# sky130_fd_pr__res_xhigh_po_0p35 l=82
X15 a_878_8184# a_878_n8616# a_n2240_n8746# sky130_fd_pr__res_xhigh_po_0p35 l=82
X16 a_n1446_8184# a_n1446_n8616# a_n2240_n8746# sky130_fd_pr__res_xhigh_po_0p35 l=82
X17 a_n2110_8184# a_n2110_n8616# a_n2240_n8746# sky130_fd_pr__res_xhigh_po_0p35 l=82
X18 a_1874_8184# a_1874_n8616# a_n2240_n8746# sky130_fd_pr__res_xhigh_po_0p35 l=82
X19 a_n1944_8184# a_n1944_n8616# a_n2240_n8746# sky130_fd_pr__res_xhigh_po_0p35 l=82
X20 a_214_8184# a_214_n8616# a_n2240_n8746# sky130_fd_pr__res_xhigh_po_0p35 l=82
X21 a_n1280_8184# a_n1280_n8616# a_n2240_n8746# sky130_fd_pr__res_xhigh_po_0p35 l=82
X22 a_1210_8184# a_1210_n8616# a_n2240_n8746# sky130_fd_pr__res_xhigh_po_0p35 l=82
X23 a_712_8184# a_712_n8616# a_n2240_n8746# sky130_fd_pr__res_xhigh_po_0p35 l=82
X24 a_n118_8184# a_n118_n8616# a_n2240_n8746# sky130_fd_pr__res_xhigh_po_0p35 l=82
X25 a_n1778_8184# a_n1778_n8616# a_n2240_n8746# sky130_fd_pr__res_xhigh_po_0p35 l=82
.ends

.subckt sky130_fd_pr__res_xhigh_po_0p35_VTNT3C a_n118_7484# a_214_n7916# a_48_n7916#
+ a_214_7484# a_n414_n8046# a_48_7484# a_n284_n7916# a_n118_n7916# a_n284_7484#
X0 a_n118_7484# a_n118_n7916# a_n414_n8046# sky130_fd_pr__res_xhigh_po_0p35 l=75
X1 a_n284_7484# a_n284_n7916# a_n414_n8046# sky130_fd_pr__res_xhigh_po_0p35 l=75
X2 a_48_7484# a_48_n7916# a_n414_n8046# sky130_fd_pr__res_xhigh_po_0p35 l=75
X3 a_214_7484# a_214_n7916# a_n414_n8046# sky130_fd_pr__res_xhigh_po_0p35 l=75
.ends

.subckt sky130_fd_pr__diode_pw2nd_05v5_FT76RJ a_n147_n147# a_n45_n45#
X0 a_n147_n147# a_n45_n45# sky130_fd_pr__diode_pw2nd_05v5 perim=1.8e+06 area=2.025e+11
.ends

.subckt sky130_fd_sc_hd__buf_1 A VGND VNB VPB VPWR X
X0 VPWR A a_27_47# VPB sky130_fd_pr__pfet_01v8_hvt ad=0.11455 pd=1.08 as=0.2054 ps=2.1 w=0.79 l=0.15
X1 X a_27_47# VGND VNB sky130_fd_pr__nfet_01v8 ad=0.1352 pd=1.56 as=0.0754 ps=0.81 w=0.52 l=0.15
X2 X a_27_47# VPWR VPB sky130_fd_pr__pfet_01v8_hvt ad=0.2054 pd=2.1 as=0.11455 ps=1.08 w=0.79 l=0.15
X3 VGND A a_27_47# VNB sky130_fd_pr__nfet_01v8 ad=0.0754 pd=0.81 as=0.1352 ps=1.56 w=0.52 l=0.15
.ends

.subckt sky130_fd_pr__nfet_01v8_LHQHT5 a_n29_n400# a_887_n400# a_429_n400# a_n887_n488#
+ a_n1047_n574# a_n429_n488# a_487_n488# a_n945_n400# a_29_n488# a_n487_n400#
X0 a_n487_n400# a_n887_n488# a_n945_n400# a_n1047_n574# sky130_fd_pr__nfet_01v8 ad=0.58 pd=4.29 as=1.16 ps=8.58 w=4 l=2
X1 a_n29_n400# a_n429_n488# a_n487_n400# a_n1047_n574# sky130_fd_pr__nfet_01v8 ad=0.58 pd=4.29 as=0.58 ps=4.29 w=4 l=2
X2 a_429_n400# a_29_n488# a_n29_n400# a_n1047_n574# sky130_fd_pr__nfet_01v8 ad=0.58 pd=4.29 as=0.58 ps=4.29 w=4 l=2
X3 a_887_n400# a_487_n488# a_429_n400# a_n1047_n574# sky130_fd_pr__nfet_01v8 ad=1.16 pd=8.58 as=0.58 ps=4.29 w=4 l=2
.ends

.subckt sky130_fd_pr__nfet_01v8_69TQ3K a_n260_n274# a_100_n100# a_n158_n100# a_n100_n188#
X0 a_100_n100# a_n100_n188# a_n158_n100# a_n260_n274# sky130_fd_pr__nfet_01v8 ad=0.29 pd=2.58 as=0.29 ps=2.58 w=1 l=1
.ends

.subckt sky130_fd_pr__pfet_01v8_3HMWVM w_n296_n319# a_n100_n197# a_100_n100# a_n158_n100#
X0 a_100_n100# a_n100_n197# a_n158_n100# w_n296_n319# sky130_fd_pr__pfet_01v8 ad=0.29 pd=2.58 as=0.29 ps=2.58 w=1 l=1
.ends

.subckt sky130_fd_pr__nfet_g5v0d10v5_9YEQ2B a_29_n388# a_n129_n388# a_n321_n522# a_n29_n300#
+ a_n187_n300# a_129_n300#
X0 a_129_n300# a_29_n388# a_n29_n300# a_n321_n522# sky130_fd_pr__nfet_g5v0d10v5 ad=0.87 pd=6.58 as=0.435 ps=3.29 w=3 l=0.5
X1 a_n29_n300# a_n129_n388# a_n187_n300# a_n321_n522# sky130_fd_pr__nfet_g5v0d10v5 ad=0.435 pd=3.29 as=0.87 ps=6.58 w=3 l=0.5
.ends

.subckt sky130_fd_pr__pfet_g5v0d10v5_VHBZVD a_n400_n197# a_400_n100# w_n658_n397#
+ a_n458_n100#
X0 a_400_n100# a_n400_n197# a_n458_n100# w_n658_n397# sky130_fd_pr__pfet_g5v0d10v5 ad=0.29 pd=2.58 as=0.29 ps=2.58 w=1 l=4
.ends

.subckt level_shift dvdd dvss in in_b out_b out dw_2668_n1758# avss avdd
XXM1 dvss in_b dvss in sky130_fd_pr__nfet_01v8_69TQ3K
XXM2 dvdd in dvdd in_b sky130_fd_pr__pfet_01v8_3HMWVM
XXM3 in in avss out_b avss avss sky130_fd_pr__nfet_g5v0d10v5_9YEQ2B
XXM4 in_b in_b avss out avss avss sky130_fd_pr__nfet_g5v0d10v5_9YEQ2B
XXM5 out avdd avdd out_b sky130_fd_pr__pfet_g5v0d10v5_VHBZVD
XXM6 out_b out avdd avdd sky130_fd_pr__pfet_g5v0d10v5_VHBZVD
.ends

.subckt sky130_fd_pr__nfet_01v8_6G4XAN a_n29_n155# a_29_n243# a_n287_n155# a_n389_n329#
+ a_n229_n243# a_229_55# a_229_n155# a_n287_55# a_n29_55#
X0 a_n29_n155# a_n229_n243# a_n287_n155# a_n389_n329# sky130_fd_pr__nfet_01v8 ad=0.0725 pd=0.79 as=0.145 ps=1.58 w=0.5 l=1
X1 a_229_n155# a_29_n243# a_n29_n155# a_n389_n329# sky130_fd_pr__nfet_01v8 ad=0.145 pd=1.58 as=0.0725 ps=0.79 w=0.5 l=1
X2 a_229_55# a_29_n243# a_n29_55# a_n389_n329# sky130_fd_pr__nfet_01v8 ad=0.145 pd=1.58 as=0.0725 ps=0.79 w=0.5 l=1
X3 a_n29_55# a_n229_n243# a_n287_55# a_n389_n329# sky130_fd_pr__nfet_01v8 ad=0.0725 pd=0.79 as=0.145 ps=1.58 w=0.5 l=1
.ends

.subckt sky130_fd_sc_hd__and2_0 A B VGND VNB VPB VPWR X
X0 VPWR B a_40_47# VPB sky130_fd_pr__pfet_01v8_hvt ad=0.1841 pd=1.26 as=0.0609 ps=0.71 w=0.42 l=0.15
X1 X a_40_47# VPWR VPB sky130_fd_pr__pfet_01v8_hvt ad=0.1696 pd=1.81 as=0.1841 ps=1.26 w=0.64 l=0.15
X2 VGND B a_123_47# VNB sky130_fd_pr__nfet_01v8 ad=0.0966 pd=0.88 as=0.0441 ps=0.63 w=0.42 l=0.15
X3 X a_40_47# VGND VNB sky130_fd_pr__nfet_01v8 ad=0.1113 pd=1.37 as=0.0966 ps=0.88 w=0.42 l=0.15
X4 a_123_47# A a_40_47# VNB sky130_fd_pr__nfet_01v8 ad=0.0441 pd=0.63 as=0.1113 ps=1.37 w=0.42 l=0.15
X5 a_40_47# A VPWR VPB sky130_fd_pr__pfet_01v8_hvt ad=0.0609 pd=0.71 as=0.1113 ps=1.37 w=0.42 l=0.15
.ends

.subckt sky130_fd_sc_hd__dfrbp_1 CLK D RESET_B VGND VNB VPB VPWR Q Q_N
X0 Q a_1283_21# VPWR VPB sky130_fd_pr__pfet_01v8_hvt ad=0.28 pd=2.56 as=0.2132 ps=1.67 w=1 l=0.15
X1 a_805_47# a_761_289# a_639_47# VNB sky130_fd_pr__nfet_01v8 ad=0.0441 pd=0.63 as=0.1401 ps=1.1 w=0.42 l=0.15
X2 VPWR a_1283_21# a_1847_47# VPB sky130_fd_pr__pfet_01v8_hvt ad=0.154 pd=1.335 as=0.1664 ps=1.8 w=0.64 l=0.15
X3 a_1217_47# a_27_47# a_1108_47# VNB sky130_fd_pr__special_nfet_01v8 ad=0.0669 pd=0.75 as=0.0711 ps=0.755 w=0.36 l=0.15
X4 a_1283_21# a_1108_47# a_1462_47# VNB sky130_fd_pr__nfet_01v8 ad=0.1092 pd=1.36 as=0.06405 ps=0.725 w=0.42 l=0.15
X5 a_651_413# a_27_47# a_543_47# VPB sky130_fd_pr__pfet_01v8_hvt ad=0.1155 pd=0.97 as=0.07245 ps=0.765 w=0.42 l=0.15
X6 a_1108_47# a_193_47# a_761_289# VNB sky130_fd_pr__special_nfet_01v8 ad=0.0711 pd=0.755 as=0.0999 ps=0.985 w=0.36 l=0.15
X7 VGND RESET_B a_805_47# VNB sky130_fd_pr__nfet_01v8 ad=0.1346 pd=1.15 as=0.0441 ps=0.63 w=0.42 l=0.15
X8 VPWR CLK a_27_47# VPB sky130_fd_pr__pfet_01v8_hvt ad=0.0864 pd=0.91 as=0.1664 ps=1.8 w=0.64 l=0.15
X9 Q_N a_1847_47# VGND VNB sky130_fd_pr__nfet_01v8 ad=0.169 pd=1.82 as=0.10025 ps=0.985 w=0.65 l=0.15
X10 a_448_47# D VPWR VPB sky130_fd_pr__pfet_01v8_hvt ad=0.0651 pd=0.73 as=0.1092 ps=1.36 w=0.42 l=0.15
X11 VGND a_1283_21# a_1847_47# VNB sky130_fd_pr__nfet_01v8 ad=0.10025 pd=0.985 as=0.1092 ps=1.36 w=0.42 l=0.15
X12 a_761_289# a_543_47# VGND VNB sky130_fd_pr__nfet_01v8 ad=0.0999 pd=0.985 as=0.1346 ps=1.15 w=0.64 l=0.15
X13 Q a_1283_21# VGND VNB sky130_fd_pr__nfet_01v8 ad=0.169 pd=1.82 as=0.169 ps=1.82 w=0.65 l=0.15
X14 a_193_47# a_27_47# VGND VNB sky130_fd_pr__nfet_01v8 ad=0.1092 pd=1.36 as=0.0567 ps=0.69 w=0.42 l=0.15
X15 a_1108_47# a_27_47# a_761_289# VPB sky130_fd_pr__pfet_01v8_hvt ad=0.0588 pd=0.7 as=0.12915 ps=1.185 w=0.42 l=0.15
X16 a_1462_47# RESET_B VGND VNB sky130_fd_pr__nfet_01v8 ad=0.06405 pd=0.725 as=0.12495 ps=1.015 w=0.42 l=0.15
X17 a_543_47# a_27_47# a_448_47# VNB sky130_fd_pr__special_nfet_01v8 ad=0.0594 pd=0.69 as=0.066 ps=0.745 w=0.36 l=0.15
X18 a_543_47# a_193_47# a_448_47# VPB sky130_fd_pr__pfet_01v8_hvt ad=0.07245 pd=0.765 as=0.0651 ps=0.73 w=0.42 l=0.15
X19 a_448_47# D VGND VNB sky130_fd_pr__nfet_01v8 ad=0.066 pd=0.745 as=0.2205 ps=1.89 w=0.42 l=0.15
X20 VPWR a_1283_21# a_1270_413# VPB sky130_fd_pr__pfet_01v8_hvt ad=0.0819 pd=0.81 as=0.0567 ps=0.69 w=0.42 l=0.15
X21 VPWR a_1108_47# a_1283_21# VPB sky130_fd_pr__pfet_01v8_hvt ad=0.2132 pd=1.67 as=0.0567 ps=0.69 w=0.42 l=0.15
X22 a_1270_413# a_193_47# a_1108_47# VPB sky130_fd_pr__pfet_01v8_hvt ad=0.0567 pd=0.69 as=0.0588 ps=0.7 w=0.42 l=0.15
X23 a_193_47# a_27_47# VPWR VPB sky130_fd_pr__pfet_01v8_hvt ad=0.1664 pd=1.8 as=0.0864 ps=0.91 w=0.64 l=0.15
X24 a_1283_21# RESET_B VPWR VPB sky130_fd_pr__pfet_01v8_hvt ad=0.0567 pd=0.69 as=0.0819 ps=0.81 w=0.42 l=0.15
X25 VPWR a_761_289# a_651_413# VPB sky130_fd_pr__pfet_01v8_hvt ad=0.07035 pd=0.755 as=0.1155 ps=0.97 w=0.42 l=0.15
X26 a_639_47# a_193_47# a_543_47# VNB sky130_fd_pr__special_nfet_01v8 ad=0.1401 pd=1.1 as=0.0594 ps=0.69 w=0.36 l=0.15
X27 Q_N a_1847_47# VPWR VPB sky130_fd_pr__pfet_01v8_hvt ad=0.26 pd=2.52 as=0.154 ps=1.335 w=1 l=0.15
X28 VGND a_1283_21# a_1217_47# VNB sky130_fd_pr__nfet_01v8 ad=0.12495 pd=1.015 as=0.0669 ps=0.75 w=0.42 l=0.15
X29 a_651_413# RESET_B VPWR VPB sky130_fd_pr__pfet_01v8_hvt ad=0.1092 pd=1.36 as=0.07035 ps=0.755 w=0.42 l=0.15
X30 VGND CLK a_27_47# VNB sky130_fd_pr__nfet_01v8 ad=0.0567 pd=0.69 as=0.1092 ps=1.36 w=0.42 l=0.15