* NGSPICE file created from frigate_analog.ext - technology: sky130A

.subckt sky130_fd_pr__pfet_g5v0d10v5_CPKWZQ w_n487_n797# a_29_n597# a_n287_n500# a_n229_n597#
+ a_229_n500# a_n29_n500#
X0 a_229_n500# a_29_n597# a_n29_n500# w_n487_n797# sky130_fd_pr__pfet_g5v0d10v5 ad=1.45 pd=10.58 as=0.725 ps=5.29 w=5 l=1
X1 a_n29_n500# a_n229_n597# a_n287_n500# w_n487_n797# sky130_fd_pr__pfet_g5v0d10v5 ad=0.725 pd=5.29 as=1.45 ps=10.58 w=5 l=1
.ends

.subckt sky130_fd_pr__pfet_g5v0d10v5_6THU7R a_n50_n597# a_50_n500# w_n308_n797# a_n108_n500#
X0 a_50_n500# a_n50_n597# a_n108_n500# w_n308_n797# sky130_fd_pr__pfet_g5v0d10v5 ad=1.45 pd=10.58 as=1.45 ps=10.58 w=5 l=0.5
.ends

.subckt sky130_fd_pr__nfet_g5v0d10v5_R6PXNO a_n287_n500# a_n487_n588# a_229_n500#
+ a_n545_n500# a_29_n588# a_n687_n722# a_n29_n500# a_487_n500# a_n229_n588# a_287_n588#
X0 a_487_n500# a_287_n588# a_229_n500# a_n687_n722# sky130_fd_pr__nfet_g5v0d10v5 ad=1.45 pd=10.58 as=0.725 ps=5.29 w=5 l=1
X1 a_229_n500# a_29_n588# a_n29_n500# a_n687_n722# sky130_fd_pr__nfet_g5v0d10v5 ad=0.725 pd=5.29 as=0.725 ps=5.29 w=5 l=1
X2 a_n29_n500# a_n229_n588# a_n287_n500# a_n687_n722# sky130_fd_pr__nfet_g5v0d10v5 ad=0.725 pd=5.29 as=0.725 ps=5.29 w=5 l=1
X3 a_n287_n500# a_n487_n588# a_n545_n500# a_n687_n722# sky130_fd_pr__nfet_g5v0d10v5 ad=0.725 pd=5.29 as=1.45 ps=10.58 w=5 l=1
.ends

.subckt sky130_fd_pr__nfet_g5v0d10v5_25MXQV a_n429_n588# a_29_n588# a_n487_n500# a_n629_n722#
+ a_n29_n500# a_429_n500#
X0 a_n29_n500# a_n429_n588# a_n487_n500# a_n629_n722# sky130_fd_pr__nfet_g5v0d10v5 ad=0.725 pd=5.29 as=1.45 ps=10.58 w=5 l=2
X1 a_429_n500# a_29_n588# a_n29_n500# a_n629_n722# sky130_fd_pr__nfet_g5v0d10v5 ad=1.45 pd=10.58 as=0.725 ps=5.29 w=5 l=2
.ends

.subckt sky130_fd_pr__nfet_05v0_nvt_N7RQJ6 a_1261_n500# a_n1319_n500# a_1061_n588#
+ a_n287_n500# a_n1061_n500# a_n487_n588# a_745_n500# a_n1261_n588# a_545_n588# a_229_n500#
+ a_n545_n500# a_29_n588# a_1003_n500# a_n745_n588# a_n1461_n722# a_803_n588# a_n29_n500#
+ a_487_n500# a_n229_n588# a_n1003_n588# a_287_n588# a_n803_n500#
X0 a_n1061_n500# a_n1261_n588# a_n1319_n500# a_n1461_n722# sky130_fd_pr__nfet_05v0_nvt ad=0.725 pd=5.29 as=1.45 ps=10.58 w=5 l=1
X1 a_1003_n500# a_803_n588# a_745_n500# a_n1461_n722# sky130_fd_pr__nfet_05v0_nvt ad=0.725 pd=5.29 as=0.725 ps=5.29 w=5 l=1
X2 a_487_n500# a_287_n588# a_229_n500# a_n1461_n722# sky130_fd_pr__nfet_05v0_nvt ad=0.725 pd=5.29 as=0.725 ps=5.29 w=5 l=1
X3 a_745_n500# a_545_n588# a_487_n500# a_n1461_n722# sky130_fd_pr__nfet_05v0_nvt ad=0.725 pd=5.29 as=0.725 ps=5.29 w=5 l=1
X4 a_1261_n500# a_1061_n588# a_1003_n500# a_n1461_n722# sky130_fd_pr__nfet_05v0_nvt ad=1.45 pd=10.58 as=0.725 ps=5.29 w=5 l=1
X5 a_229_n500# a_29_n588# a_n29_n500# a_n1461_n722# sky130_fd_pr__nfet_05v0_nvt ad=0.725 pd=5.29 as=0.725 ps=5.29 w=5 l=1
X6 a_n29_n500# a_n229_n588# a_n287_n500# a_n1461_n722# sky130_fd_pr__nfet_05v0_nvt ad=0.725 pd=5.29 as=0.725 ps=5.29 w=5 l=1
X7 a_n545_n500# a_n745_n588# a_n803_n500# a_n1461_n722# sky130_fd_pr__nfet_05v0_nvt ad=0.725 pd=5.29 as=0.725 ps=5.29 w=5 l=1
X8 a_n803_n500# a_n1003_n588# a_n1061_n500# a_n1461_n722# sky130_fd_pr__nfet_05v0_nvt ad=0.725 pd=5.29 as=0.725 ps=5.29 w=5 l=1
X9 a_n287_n500# a_n487_n588# a_n545_n500# a_n1461_n722# sky130_fd_pr__nfet_05v0_nvt ad=0.725 pd=5.29 as=0.725 ps=5.29 w=5 l=1
.ends

.subckt sky130_fd_pr__pfet_g5v0d10v5_3P3PJP a_n50_n197# a_50_n100# w_n308_n397# a_n108_n100#
X0 a_50_n100# a_n50_n197# a_n108_n100# w_n308_n397# sky130_fd_pr__pfet_g5v0d10v5 ad=0.29 pd=2.58 as=0.29 ps=2.58 w=1 l=0.5
.ends

.subckt sky130_fd_pr__pfet_g5v0d10v5_CBUN3Q a_29_n597# a_n287_n500# a_n229_n597# a_287_n597#
+ a_229_n500# w_n745_n797# a_n545_n500# a_n487_n597# a_n29_n500# a_487_n500#
X0 a_487_n500# a_287_n597# a_229_n500# w_n745_n797# sky130_fd_pr__pfet_g5v0d10v5 ad=1.45 pd=10.58 as=0.725 ps=5.29 w=5 l=1
X1 a_229_n500# a_29_n597# a_n29_n500# w_n745_n797# sky130_fd_pr__pfet_g5v0d10v5 ad=0.725 pd=5.29 as=0.725 ps=5.29 w=5 l=1
X2 a_n29_n500# a_n229_n597# a_n287_n500# w_n745_n797# sky130_fd_pr__pfet_g5v0d10v5 ad=0.725 pd=5.29 as=0.725 ps=5.29 w=5 l=1
X3 a_n287_n500# a_n487_n597# a_n545_n500# w_n745_n797# sky130_fd_pr__pfet_g5v0d10v5 ad=0.725 pd=5.29 as=1.45 ps=10.58 w=5 l=1
.ends

.subckt sky130_fd_pr__pfet_g5v0d10v5_5FCQ7L a_29_n597# a_n129_n597# a_129_n500# a_n29_n500#
+ w_n387_n797# a_n187_n500#
X0 a_129_n500# a_29_n597# a_n29_n500# w_n387_n797# sky130_fd_pr__pfet_g5v0d10v5 ad=1.45 pd=10.58 as=0.725 ps=5.29 w=5 l=0.5
X1 a_n29_n500# a_n129_n597# a_n187_n500# w_n387_n797# sky130_fd_pr__pfet_g5v0d10v5 ad=0.725 pd=5.29 as=1.45 ps=10.58 w=5 l=0.5
.ends

.subckt sky130_fd_pr__nfet_g5v0d10v5_VR3TSB a_50_n200# a_n242_n422# a_n108_n200# a_n50_n288#
X0 a_50_n200# a_n50_n288# a_n108_n200# a_n242_n422# sky130_fd_pr__nfet_g5v0d10v5 ad=0.58 pd=4.58 as=0.58 ps=4.58 w=2 l=0.5
.ends

.subckt sky130_fd_pr__nfet_g5v0d10v5_D5V3WB a_n429_n568# a_n487_n480# a_n29_n480#
+ a_29_n568# a_429_n480# a_n629_n702#
X0 a_429_n480# a_29_n568# a_n29_n480# a_n629_n702# sky130_fd_pr__nfet_g5v0d10v5 ad=1.392 pd=10.18 as=0.696 ps=5.09 w=4.8 l=2
X1 a_n29_n480# a_n429_n568# a_n487_n480# a_n629_n702# sky130_fd_pr__nfet_g5v0d10v5 ad=0.696 pd=5.09 as=1.392 ps=10.18 w=4.8 l=2
.ends

.subckt sky130_fd_pr__nfet_g5v0d10v5_TEGW2X a_n321_n472# a_29_n338# a_n29_n250# a_n129_n338#
+ a_n187_n250# a_129_n250#
X0 a_129_n250# a_29_n338# a_n29_n250# a_n321_n472# sky130_fd_pr__nfet_g5v0d10v5 ad=0.725 pd=5.58 as=0.3625 ps=2.79 w=2.5 l=0.5
X1 a_n29_n250# a_n129_n338# a_n187_n250# a_n321_n472# sky130_fd_pr__nfet_g5v0d10v5 ad=0.3625 pd=2.79 as=0.725 ps=5.58 w=2.5 l=0.5
.ends

.subckt comparator_high_gain VDD VBN VSS VINP VOUT VINM DVDD ena3v3 w_355_n3243# DVSS
+ m2_4679_n3224#
XXM12 VDD m1_528_n2416# VDD m1_528_n2416# VDD m1_528_n2416# sky130_fd_pr__pfet_g5v0d10v5_CPKWZQ
XXM19 m1_4323_402# m1_3254_994# VDD VDD sky130_fd_pr__pfet_g5v0d10v5_6THU7R
XXM2 w_355_n3243# VINM w_355_n3243# m1_838_n2484# VINM w_355_n3243# m1_838_n2484#
+ m1_838_n2484# VINM VINM sky130_fd_pr__nfet_g5v0d10v5_R6PXNO
XXM3 VBN VBN w_355_n3243# VSS VSS w_355_n3243# sky130_fd_pr__nfet_g5v0d10v5_25MXQV
XXM5 m1_528_n2416# m1_528_n2416# VINM m1_528_n2416# m1_838_n2484# VINM m1_528_n2416#
+ VINM VINM m1_528_n2416# m1_838_n2484# VINM m1_838_n2484# VINM w_355_n3243# VINM
+ m1_838_n2484# m1_838_n2484# VINM VINM VINM m1_528_n2416# sky130_fd_pr__nfet_05v0_nvt_N7RQJ6
XXM8 ena3v3 VDD VDD m1_4323_402# sky130_fd_pr__pfet_g5v0d10v5_3P3PJP
XXM9 m1_528_n1044# m1_4323_402# m1_528_n1044# m1_528_n1044# m1_4323_402# VDD VDD m1_528_n1044#
+ VDD VDD sky130_fd_pr__pfet_g5v0d10v5_CBUN3Q
Xsky130_fd_pr__nfet_05v0_nvt_N7RQJ6_0 m1_528_n1044# m1_528_n1044# VINP m1_528_n1044#
+ m1_792_n1578# VINP m1_528_n1044# VINP VINP m1_528_n1044# m1_792_n1578# VINP m1_792_n1578#
+ VINP w_355_n3243# VINP m1_792_n1578# m1_792_n1578# VINP VINP VINP m1_528_n1044#
+ sky130_fd_pr__nfet_05v0_nvt_N7RQJ6
Xsky130_fd_pr__pfet_g5v0d10v5_5FCQ7L_0 m1_3254_994# m1_3254_994# VOUT DVDD VDD VOUT
+ sky130_fd_pr__pfet_g5v0d10v5_5FCQ7L
Xsky130_fd_pr__pfet_g5v0d10v5_CPKWZQ_0 VDD m1_528_n2416# VDD m1_528_n2416# VDD m1_528_n1044#
+ sky130_fd_pr__pfet_g5v0d10v5_CPKWZQ
XXM20 m1_3254_994# VSS VSS m1_4323_402# sky130_fd_pr__nfet_g5v0d10v5_VR3TSB
Xsky130_fd_pr__nfet_g5v0d10v5_R6PXNO_0 w_355_n3243# VINP w_355_n3243# m1_792_n1578#
+ VINP w_355_n3243# m1_792_n1578# m1_792_n1578# VINP VINP sky130_fd_pr__nfet_g5v0d10v5_R6PXNO
XXM10 VBN m1_4323_402# VSS VBN m1_4323_402# VSS sky130_fd_pr__nfet_g5v0d10v5_D5V3WB
XXM22 DVSS m1_3254_994# DVSS m1_3254_994# VOUT VOUT sky130_fd_pr__nfet_g5v0d10v5_TEGW2X
.ends

.subckt sky130_fd_pr__res_high_po_1p41_3L9D94 a_n141_2684# a_n897_2684# a_615_2684#
+ a_n141_n3116# a_n519_n3116# a_n1027_n3246# a_n897_n3116# a_237_n3116# a_615_n3116#
+ a_237_2684# a_n519_2684#
X0 a_n897_2684# a_n897_n3116# a_n1027_n3246# sky130_fd_pr__res_high_po_1p41 l=27
X1 a_615_2684# a_615_n3116# a_n1027_n3246# sky130_fd_pr__res_high_po_1p41 l=27
X2 a_n519_2684# a_n519_n3116# a_n1027_n3246# sky130_fd_pr__res_high_po_1p41 l=27
X3 a_n141_2684# a_n141_n3116# a_n1027_n3246# sky130_fd_pr__res_high_po_1p41 l=27
X4 a_237_2684# a_237_n3116# a_n1027_n3246# sky130_fd_pr__res_high_po_1p41 l=27
.ends

.subckt sky130_fd_pr__nfet_g5v0d10v5_35MXHD a_n400_n722# a_200_n500# a_n258_n500#
+ a_n200_n588#
X0 a_200_n500# a_n200_n588# a_n258_n500# a_n400_n722# sky130_fd_pr__nfet_g5v0d10v5 ad=1.45 pd=10.58 as=1.45 ps=10.58 w=5 l=2
.ends

.subckt sky130_fd_pr__pfet_g5v0d10v5_VXYCT5 a_n200_n2097# a_200_n2000# w_n458_n2297#
+ a_n258_n2000#
X0 a_200_n2000# a_n200_n2097# a_n258_n2000# w_n458_n2297# sky130_fd_pr__pfet_g5v0d10v5 ad=5.8 pd=40.58 as=5.8 ps=40.58 w=20 l=2
.ends

.subckt sky130_fd_pr__pfet_g5v0d10v5_G59KN9 a_1500_n100# a_n1558_n100# w_n1758_n397#
+ a_n1500_n197#
X0 a_1500_n100# a_n1500_n197# a_n1558_n100# w_n1758_n397# sky130_fd_pr__pfet_g5v0d10v5 ad=0.29 pd=2.58 as=0.29 ps=2.58 w=1 l=15
.ends

.subckt scomp_bias VDD VSS VBN ena3v3
XXR2 m1_3426_n1184# m1_4180_n1184# m1_785_3533# m1_3804_4616# m1_3804_4616# VSS VDD
+ m1_3048_4616# m1_3048_4616# m1_3426_n1184# m1_4180_n1184# sky130_fd_pr__res_high_po_1p41_3L9D94
XXM1 VSS m1_1110_n572# VSS VBN sky130_fd_pr__nfet_g5v0d10v5_35MXHD
XXM2 VSS VBN VSS VBN sky130_fd_pr__nfet_g5v0d10v5_35MXHD
XXM3 m1_785_3533# VDD VDD m1_1110_n572# sky130_fd_pr__pfet_g5v0d10v5_VXYCT5
XXM4 m1_1110_n572# m1_785_3533# VDD m1_1990_264# sky130_fd_pr__pfet_g5v0d10v5_VXYCT5
XXM5 VBN m1_785_3533# VDD VBN sky130_fd_pr__pfet_g5v0d10v5_G59KN9
XXM8 VSS m1_1990_264# VBN ena3v3 sky130_fd_pr__nfet_g5v0d10v5_35MXHD
.ends

.subckt sky130_fd_sc_hvl__lsbuflv2hv_1 A LVPWR VGND VPB VPWR X VPWR_uq0 VGND_uq0 VNB
X0 VGND a_404_1133# a_504_1221# VNB sky130_fd_pr__nfet_g5v0d10v5 ad=0.21 pd=1.78 as=0.21 ps=1.78 w=1.5 l=0.5
X1 a_504_1221# a_404_1133# VGND VNB sky130_fd_pr__nfet_g5v0d10v5 ad=0.21 pd=1.78 as=0.21 ps=1.78 w=1.5 l=0.5
X2 X a_1711_885# VPWR VPB sky130_fd_pr__pfet_g5v0d10v5 ad=0.3975 pd=3.53 as=0.24375 ps=1.825 w=1.5 l=0.5
X3 X a_1711_885# VGND VNB sky130_fd_pr__nfet_g5v0d10v5 ad=0.19875 pd=2.03 as=0.12188 ps=1.075 w=0.75 l=0.5
X4 VGND_uq0 A a_404_1133# VNB sky130_fd_pr__nfet_01v8 ad=0.1176 pd=1.12 as=0.2478 ps=2.27 w=0.84 l=0.15
X5 a_1197_107# a_772_151# VGND_uq0 VNB sky130_fd_pr__nfet_g5v0d10v5 ad=0.21 pd=1.78 as=0.21 ps=1.78 w=1.5 l=0.5
X6 VPWR_uq0 a_1197_107# a_504_1221# VPB sky130_fd_pr__pfet_g5v0d10v5 ad=0.2142 pd=1.99 as=0.2142 ps=1.99 w=0.42 l=1
X7 a_504_1221# a_404_1133# VGND VNB sky130_fd_pr__nfet_g5v0d10v5 ad=0.3975 pd=3.53 as=0.21 ps=1.78 w=1.5 l=0.5
X8 a_1197_107# a_772_151# VGND_uq0 VNB sky130_fd_pr__nfet_g5v0d10v5 ad=0.3975 pd=3.53 as=0.21 ps=1.78 w=1.5 l=0.5
X9 a_504_1221# a_404_1133# VGND VNB sky130_fd_pr__nfet_g5v0d10v5 ad=0.21 pd=1.78 as=0.3975 ps=3.53 w=1.5 l=0.5
X10 VGND a_404_1133# a_504_1221# VNB sky130_fd_pr__nfet_g5v0d10v5 ad=0.21 pd=1.78 as=0.21 ps=1.78 w=1.5 l=0.5
X11 a_772_151# a_404_1133# VGND_uq0 VNB sky130_fd_pr__nfet_01v8 ad=0.2478 pd=2.27 as=0.1176 ps=1.12 w=0.84 l=0.15
X12 VGND_uq0 a_772_151# a_1197_107# VNB sky130_fd_pr__nfet_g5v0d10v5 ad=0.21 pd=1.78 as=0.21 ps=1.78 w=1.5 l=0.5
X13 LVPWR A a_404_1133# LVPWR sky130_fd_pr__pfet_01v8_hvt ad=0.1176 pd=1.12 as=0.2478 ps=2.27 w=0.84 l=0.15
X14 VPWR a_504_1221# a_1711_885# VPB sky130_fd_pr__pfet_g5v0d10v5 ad=0.24375 pd=1.825 as=0.3975 ps=3.53 w=1.5 l=0.5
X15 VGND a_504_1221# a_1711_885# VNB sky130_fd_pr__nfet_g5v0d10v5 ad=0.12188 pd=1.075 as=0.19875 ps=2.03 w=0.75 l=0.5
X16 VGND_uq0 a_772_151# a_1197_107# VNB sky130_fd_pr__nfet_g5v0d10v5 ad=0.21 pd=1.78 as=0.21 ps=1.78 w=1.5 l=0.5
X17 a_772_151# a_404_1133# LVPWR LVPWR sky130_fd_pr__pfet_01v8_hvt ad=0.2478 pd=2.27 as=0.1176 ps=1.12 w=0.84 l=0.15
X18 a_1197_107# a_772_151# VGND_uq0 VNB sky130_fd_pr__nfet_g5v0d10v5 ad=0.21 pd=1.78 as=0.3975 ps=3.53 w=1.5 l=0.5
X19 VPWR a_504_1221# a_1197_107# VPB sky130_fd_pr__pfet_g5v0d10v5 ad=0.1113 pd=1.37 as=0.1365 ps=1.49 w=0.42 l=1
.ends

.subckt sky130_fd_sc_hvl__diode_2 DIODE VGND VNB VPB VPWR
X0 VNB DIODE sky130_fd_pr__diode_pw2nd_11v0 perim=3.16e+06 area=6.072e+11
.ends

.subckt sky130_ef_ip__scomp3v VOUT VDD VINP VINM ENA DVDD w_6543_n2805# VSS w_7612_1960#
+ DVSS
Xx1 VDD x2/VBN VSS VINP VOUT VINM DVDD x3/X w_6543_n2805# DVSS VSS comparator_high_gain
Xx2 VDD VSS x2/VBN x3/X scomp_bias
Xx3 ENA DVDD DVSS VDD VDD x3/X VDD DVSS DVSS sky130_fd_sc_hvl__lsbuflv2hv_1
Xsky130_fd_sc_hvl__diode_2_0 ENA DVSS DVSS VDD VDD sky130_fd_sc_hvl__diode_2
.ends

.subckt sky130_fd_pr__pfet_g5v0d10v5_CVG6CD a_50_n400# w_n308_n697# a_n50_n464# a_n108_n400#
X0 a_50_n400# a_n50_n464# a_n108_n400# w_n308_n697# sky130_fd_pr__pfet_g5v0d10v5 ad=1.16 pd=8.58 as=1.16 ps=8.58 w=4 l=0.5
.ends

.subckt sky130_fd_pr__pfet_g5v0d10v5_W75H7K a_n4673_n1200# a_4873_n1200# a_2093_n1264#
+ a_n4099_n1264# w_n5131_n1497# a_4099_n1200# a_745_n1200# a_1577_n1264# a_803_n1264#
+ a_n745_n1264# a_n1003_n1264# a_n545_n1200# a_4157_n1264# a_n3583_n1264# a_3583_n1200#
+ a_1003_n1200# a_n3383_n1200# a_n2867_n1200# a_3641_n1264# a_n2293_n1264# a_2293_n1200#
+ a_n1577_n1200# a_n2093_n1200# a_n4931_n1200# a_2351_n1264# a_n1777_n1264# a_n4357_n1264#
+ a_1777_n1200# a_n29_n1200# a_n4157_n1200# a_1835_n1264# a_4357_n1200# a_n803_n1200#
+ a_4415_n1264# a_n3841_n1264# a_229_n1200# a_n3641_n1200# a_n229_n1264# a_3841_n1200#
+ a_1061_n1264# a_n3067_n1264# a_3067_n1200# a_3125_n1264# a_n2551_n1264# a_n2351_n1200#
+ a_2609_n1264# a_2551_n1200# a_n1835_n1200# a_n4615_n1264# a_4615_n1200# a_n4415_n1200#
+ a_1319_n1264# a_n1261_n1264# a_1261_n1200# a_n1061_n1200# a_3899_n1264# a_287_n1264#
+ a_n3325_n1264# a_n3125_n1200# a_n2809_n1264# a_3325_n1200# a_n2609_n1200# a_2809_n1200#
+ a_n2035_n1264# a_2035_n1200# a_n1519_n1264# a_1519_n1200# a_n1319_n1200# a_487_n1200#
+ a_n3899_n1200# a_4673_n1264# a_545_n1264# a_29_n1264# a_n487_n1264# a_n287_n1200#
+ a_3383_n1264# a_2867_n1264# a_n4873_n1264#
X0 a_1777_n1200# a_1577_n1264# a_1519_n1200# w_n5131_n1497# sky130_fd_pr__pfet_g5v0d10v5 ad=1.74 pd=12.29 as=1.74 ps=12.29 w=12 l=1
X1 a_2809_n1200# a_2609_n1264# a_2551_n1200# w_n5131_n1497# sky130_fd_pr__pfet_g5v0d10v5 ad=1.74 pd=12.29 as=1.74 ps=12.29 w=12 l=1
X2 a_n4157_n1200# a_n4357_n1264# a_n4415_n1200# w_n5131_n1497# sky130_fd_pr__pfet_g5v0d10v5 ad=1.74 pd=12.29 as=1.74 ps=12.29 w=12 l=1
X3 a_1519_n1200# a_1319_n1264# a_1261_n1200# w_n5131_n1497# sky130_fd_pr__pfet_g5v0d10v5 ad=1.74 pd=12.29 as=1.74 ps=12.29 w=12 l=1
X4 a_4873_n1200# a_4673_n1264# a_4615_n1200# w_n5131_n1497# sky130_fd_pr__pfet_g5v0d10v5 ad=3.48 pd=24.58 as=1.74 ps=12.29 w=12 l=1
X5 a_3583_n1200# a_3383_n1264# a_3325_n1200# w_n5131_n1497# sky130_fd_pr__pfet_g5v0d10v5 ad=1.74 pd=12.29 as=1.74 ps=12.29 w=12 l=1
X6 a_4615_n1200# a_4415_n1264# a_4357_n1200# w_n5131_n1497# sky130_fd_pr__pfet_g5v0d10v5 ad=1.74 pd=12.29 as=1.74 ps=12.29 w=12 l=1
X7 a_n2867_n1200# a_n3067_n1264# a_n3125_n1200# w_n5131_n1497# sky130_fd_pr__pfet_g5v0d10v5 ad=1.74 pd=12.29 as=1.74 ps=12.29 w=12 l=1
X8 a_487_n1200# a_287_n1264# a_229_n1200# w_n5131_n1497# sky130_fd_pr__pfet_g5v0d10v5 ad=1.74 pd=12.29 as=1.74 ps=12.29 w=12 l=1
X9 a_2293_n1200# a_2093_n1264# a_2035_n1200# w_n5131_n1497# sky130_fd_pr__pfet_g5v0d10v5 ad=1.74 pd=12.29 as=1.74 ps=12.29 w=12 l=1
X10 a_3325_n1200# a_3125_n1264# a_3067_n1200# w_n5131_n1497# sky130_fd_pr__pfet_g5v0d10v5 ad=1.74 pd=12.29 as=1.74 ps=12.29 w=12 l=1
X11 a_n287_n1200# a_n487_n1264# a_n545_n1200# w_n5131_n1497# sky130_fd_pr__pfet_g5v0d10v5 ad=1.74 pd=12.29 as=1.74 ps=12.29 w=12 l=1
X12 a_n2609_n1200# a_n2809_n1264# a_n2867_n1200# w_n5131_n1497# sky130_fd_pr__pfet_g5v0d10v5 ad=1.74 pd=12.29 as=1.74 ps=12.29 w=12 l=1
X13 a_n1577_n1200# a_n1777_n1264# a_n1835_n1200# w_n5131_n1497# sky130_fd_pr__pfet_g5v0d10v5 ad=1.74 pd=12.29 as=1.74 ps=12.29 w=12 l=1
X14 a_n29_n1200# a_n229_n1264# a_n287_n1200# w_n5131_n1497# sky130_fd_pr__pfet_g5v0d10v5 ad=1.74 pd=12.29 as=1.74 ps=12.29 w=12 l=1
X15 a_n4673_n1200# a_n4873_n1264# a_n4931_n1200# w_n5131_n1497# sky130_fd_pr__pfet_g5v0d10v5 ad=1.74 pd=12.29 as=3.48 ps=24.58 w=12 l=1
X16 a_2035_n1200# a_1835_n1264# a_1777_n1200# w_n5131_n1497# sky130_fd_pr__pfet_g5v0d10v5 ad=1.74 pd=12.29 as=1.74 ps=12.29 w=12 l=1
X17 a_n1319_n1200# a_n1519_n1264# a_n1577_n1200# w_n5131_n1497# sky130_fd_pr__pfet_g5v0d10v5 ad=1.74 pd=12.29 as=1.74 ps=12.29 w=12 l=1
X18 a_n4415_n1200# a_n4615_n1264# a_n4673_n1200# w_n5131_n1497# sky130_fd_pr__pfet_g5v0d10v5 ad=1.74 pd=12.29 as=1.74 ps=12.29 w=12 l=1
X19 a_n3383_n1200# a_n3583_n1264# a_n3641_n1200# w_n5131_n1497# sky130_fd_pr__pfet_g5v0d10v5 ad=1.74 pd=12.29 as=1.74 ps=12.29 w=12 l=1
X20 a_n3125_n1200# a_n3325_n1264# a_n3383_n1200# w_n5131_n1497# sky130_fd_pr__pfet_g5v0d10v5 ad=1.74 pd=12.29 as=1.74 ps=12.29 w=12 l=1
X21 a_3841_n1200# a_3641_n1264# a_3583_n1200# w_n5131_n1497# sky130_fd_pr__pfet_g5v0d10v5 ad=1.74 pd=12.29 as=1.74 ps=12.29 w=12 l=1
X22 a_n2093_n1200# a_n2293_n1264# a_n2351_n1200# w_n5131_n1497# sky130_fd_pr__pfet_g5v0d10v5 ad=1.74 pd=12.29 as=1.74 ps=12.29 w=12 l=1
X23 a_745_n1200# a_545_n1264# a_487_n1200# w_n5131_n1497# sky130_fd_pr__pfet_g5v0d10v5 ad=1.74 pd=12.29 as=1.74 ps=12.29 w=12 l=1
X24 a_n1835_n1200# a_n2035_n1264# a_n2093_n1200# w_n5131_n1497# sky130_fd_pr__pfet_g5v0d10v5 ad=1.74 pd=12.29 as=1.74 ps=12.29 w=12 l=1
X25 a_2551_n1200# a_2351_n1264# a_2293_n1200# w_n5131_n1497# sky130_fd_pr__pfet_g5v0d10v5 ad=1.74 pd=12.29 as=1.74 ps=12.29 w=12 l=1
X26 a_1261_n1200# a_1061_n1264# a_1003_n1200# w_n5131_n1497# sky130_fd_pr__pfet_g5v0d10v5 ad=1.74 pd=12.29 as=1.74 ps=12.29 w=12 l=1
X27 a_n545_n1200# a_n745_n1264# a_n803_n1200# w_n5131_n1497# sky130_fd_pr__pfet_g5v0d10v5 ad=1.74 pd=12.29 as=1.74 ps=12.29 w=12 l=1
X28 a_229_n1200# a_29_n1264# a_n29_n1200# w_n5131_n1497# sky130_fd_pr__pfet_g5v0d10v5 ad=1.74 pd=12.29 as=1.74 ps=12.29 w=12 l=1
X29 a_4099_n1200# a_3899_n1264# a_3841_n1200# w_n5131_n1497# sky130_fd_pr__pfet_g5v0d10v5 ad=1.74 pd=12.29 as=1.74 ps=12.29 w=12 l=1
X30 a_n3641_n1200# a_n3841_n1264# a_n3899_n1200# w_n5131_n1497# sky130_fd_pr__pfet_g5v0d10v5 ad=1.74 pd=12.29 as=1.74 ps=12.29 w=12 l=1
X31 a_n2351_n1200# a_n2551_n1264# a_n2609_n1200# w_n5131_n1497# sky130_fd_pr__pfet_g5v0d10v5 ad=1.74 pd=12.29 as=1.74 ps=12.29 w=12 l=1
X32 a_1003_n1200# a_803_n1264# a_745_n1200# w_n5131_n1497# sky130_fd_pr__pfet_g5v0d10v5 ad=1.74 pd=12.29 as=1.74 ps=12.29 w=12 l=1
X33 a_n3899_n1200# a_n4099_n1264# a_n4157_n1200# w_n5131_n1497# sky130_fd_pr__pfet_g5v0d10v5 ad=1.74 pd=12.29 as=1.74 ps=12.29 w=12 l=1
X34 a_n1061_n1200# a_n1261_n1264# a_n1319_n1200# w_n5131_n1497# sky130_fd_pr__pfet_g5v0d10v5 ad=1.74 pd=12.29 as=1.74 ps=12.29 w=12 l=1
X35 a_4357_n1200# a_4157_n1264# a_4099_n1200# w_n5131_n1497# sky130_fd_pr__pfet_g5v0d10v5 ad=1.74 pd=12.29 as=1.74 ps=12.29 w=12 l=1
X36 a_n803_n1200# a_n1003_n1264# a_n1061_n1200# w_n5131_n1497# sky130_fd_pr__pfet_g5v0d10v5 ad=1.74 pd=12.29 as=1.74 ps=12.29 w=12 l=1
X37 a_3067_n1200# a_2867_n1264# a_2809_n1200# w_n5131_n1497# sky130_fd_pr__pfet_g5v0d10v5 ad=1.74 pd=12.29 as=1.74 ps=12.29 w=12 l=1
.ends

.subckt sky130_fd_pr__pfet_g5v0d10v5_WKXP7K a_n4673_n1200# a_4873_n1200# a_4931_n1264#
+ a_2093_n1264# a_n4099_n1264# a_4099_n1200# a_745_n1200# a_1577_n1264# a_803_n1264#
+ a_n745_n1264# a_n1003_n1264# a_n545_n1200# a_4157_n1264# a_n3583_n1264# a_3583_n1200#
+ a_1003_n1200# a_n3383_n1200# a_n2867_n1200# a_3641_n1264# a_n2293_n1264# a_2293_n1200#
+ a_n1577_n1200# a_n2093_n1200# a_n4931_n1200# a_2351_n1264# a_n1777_n1264# a_n4357_n1264#
+ a_1777_n1200# a_n29_n1200# a_n4157_n1200# a_1835_n1264# a_4357_n1200# a_n803_n1200#
+ a_4415_n1264# a_n3841_n1264# a_229_n1200# a_n3641_n1200# a_n229_n1264# a_3841_n1200#
+ a_1061_n1264# a_n3067_n1264# a_3067_n1200# a_3125_n1264# a_n2551_n1264# a_n2351_n1200#
+ a_2609_n1264# a_n5131_n1264# w_n5389_n1497# a_5131_n1200# a_2551_n1200# a_n1835_n1200#
+ a_n4615_n1264# a_4615_n1200# a_n4415_n1200# a_1319_n1264# a_n1261_n1264# a_1261_n1200#
+ a_n1061_n1200# a_3899_n1264# a_287_n1264# a_n3325_n1264# a_n3125_n1200# a_n2809_n1264#
+ a_3325_n1200# a_n2609_n1200# a_2809_n1200# a_n2035_n1264# a_2035_n1200# a_n1519_n1264#
+ a_1519_n1200# a_n1319_n1200# a_487_n1200# a_n3899_n1200# a_4673_n1264# a_545_n1264#
+ a_29_n1264# a_n487_n1264# a_n287_n1200# a_3383_n1264# a_n5189_n1200# a_2867_n1264#
+ a_n4873_n1264#
X0 a_1777_n1200# a_1577_n1264# a_1519_n1200# w_n5389_n1497# sky130_fd_pr__pfet_g5v0d10v5 ad=1.74 pd=12.29 as=1.74 ps=12.29 w=12 l=1
X1 a_2809_n1200# a_2609_n1264# a_2551_n1200# w_n5389_n1497# sky130_fd_pr__pfet_g5v0d10v5 ad=1.74 pd=12.29 as=1.74 ps=12.29 w=12 l=1
X2 a_n4157_n1200# a_n4357_n1264# a_n4415_n1200# w_n5389_n1497# sky130_fd_pr__pfet_g5v0d10v5 ad=1.74 pd=12.29 as=1.74 ps=12.29 w=12 l=1
X3 a_1519_n1200# a_1319_n1264# a_1261_n1200# w_n5389_n1497# sky130_fd_pr__pfet_g5v0d10v5 ad=1.74 pd=12.29 as=1.74 ps=12.29 w=12 l=1
X4 a_4873_n1200# a_4673_n1264# a_4615_n1200# w_n5389_n1497# sky130_fd_pr__pfet_g5v0d10v5 ad=1.74 pd=12.29 as=1.74 ps=12.29 w=12 l=1
X5 a_3583_n1200# a_3383_n1264# a_3325_n1200# w_n5389_n1497# sky130_fd_pr__pfet_g5v0d10v5 ad=1.74 pd=12.29 as=1.74 ps=12.29 w=12 l=1
X6 a_4615_n1200# a_4415_n1264# a_4357_n1200# w_n5389_n1497# sky130_fd_pr__pfet_g5v0d10v5 ad=1.74 pd=12.29 as=1.74 ps=12.29 w=12 l=1
X7 a_n2867_n1200# a_n3067_n1264# a_n3125_n1200# w_n5389_n1497# sky130_fd_pr__pfet_g5v0d10v5 ad=1.74 pd=12.29 as=1.74 ps=12.29 w=12 l=1
X8 a_487_n1200# a_287_n1264# a_229_n1200# w_n5389_n1497# sky130_fd_pr__pfet_g5v0d10v5 ad=1.74 pd=12.29 as=1.74 ps=12.29 w=12 l=1
X9 a_2293_n1200# a_2093_n1264# a_2035_n1200# w_n5389_n1497# sky130_fd_pr__pfet_g5v0d10v5 ad=1.74 pd=12.29 as=1.74 ps=12.29 w=12 l=1
X10 a_3325_n1200# a_3125_n1264# a_3067_n1200# w_n5389_n1497# sky130_fd_pr__pfet_g5v0d10v5 ad=1.74 pd=12.29 as=1.74 ps=12.29 w=12 l=1
X11 a_n287_n1200# a_n487_n1264# a_n545_n1200# w_n5389_n1497# sky130_fd_pr__pfet_g5v0d10v5 ad=1.74 pd=12.29 as=1.74 ps=12.29 w=12 l=1
X12 a_n2609_n1200# a_n2809_n1264# a_n2867_n1200# w_n5389_n1497# sky130_fd_pr__pfet_g5v0d10v5 ad=1.74 pd=12.29 as=1.74 ps=12.29 w=12 l=1
X13 a_n1577_n1200# a_n1777_n1264# a_n1835_n1200# w_n5389_n1497# sky130_fd_pr__pfet_g5v0d10v5 ad=1.74 pd=12.29 as=1.74 ps=12.29 w=12 l=1
X14 a_n29_n1200# a_n229_n1264# a_n287_n1200# w_n5389_n1497# sky130_fd_pr__pfet_g5v0d10v5 ad=1.74 pd=12.29 as=1.74 ps=12.29 w=12 l=1
X15 a_n4673_n1200# a_n4873_n1264# a_n4931_n1200# w_n5389_n1497# sky130_fd_pr__pfet_g5v0d10v5 ad=1.74 pd=12.29 as=1.74 ps=12.29 w=12 l=1
X16 a_2035_n1200# a_1835_n1264# a_1777_n1200# w_n5389_n1497# sky130_fd_pr__pfet_g5v0d10v5 ad=1.74 pd=12.29 as=1.74 ps=12.29 w=12 l=1
X17 a_n1319_n1200# a_n1519_n1264# a_n1577_n1200# w_n5389_n1497# sky130_fd_pr__pfet_g5v0d10v5 ad=1.74 pd=12.29 as=1.74 ps=12.29 w=12 l=1
X18 a_5131_n1200# a_4931_n1264# a_4873_n1200# w_n5389_n1497# sky130_fd_pr__pfet_g5v0d10v5 ad=3.48 pd=24.58 as=1.74 ps=12.29 w=12 l=1
X19 a_n4415_n1200# a_n4615_n1264# a_n4673_n1200# w_n5389_n1497# sky130_fd_pr__pfet_g5v0d10v5 ad=1.74 pd=12.29 as=1.74 ps=12.29 w=12 l=1
X20 a_n3383_n1200# a_n3583_n1264# a_n3641_n1200# w_n5389_n1497# sky130_fd_pr__pfet_g5v0d10v5 ad=1.74 pd=12.29 as=1.74 ps=12.29 w=12 l=1
X21 a_n3125_n1200# a_n3325_n1264# a_n3383_n1200# w_n5389_n1497# sky130_fd_pr__pfet_g5v0d10v5 ad=1.74 pd=12.29 as=1.74 ps=12.29 w=12 l=1
X22 a_3841_n1200# a_3641_n1264# a_3583_n1200# w_n5389_n1497# sky130_fd_pr__pfet_g5v0d10v5 ad=1.74 pd=12.29 as=1.74 ps=12.29 w=12 l=1
X23 a_n2093_n1200# a_n2293_n1264# a_n2351_n1200# w_n5389_n1497# sky130_fd_pr__pfet_g5v0d10v5 ad=1.74 pd=12.29 as=1.74 ps=12.29 w=12 l=1
X24 a_745_n1200# a_545_n1264# a_487_n1200# w_n5389_n1497# sky130_fd_pr__pfet_g5v0d10v5 ad=1.74 pd=12.29 as=1.74 ps=12.29 w=12 l=1
X25 a_n1835_n1200# a_n2035_n1264# a_n2093_n1200# w_n5389_n1497# sky130_fd_pr__pfet_g5v0d10v5 ad=1.74 pd=12.29 as=1.74 ps=12.29 w=12 l=1
X26 a_2551_n1200# a_2351_n1264# a_2293_n1200# w_n5389_n1497# sky130_fd_pr__pfet_g5v0d10v5 ad=1.74 pd=12.29 as=1.74 ps=12.29 w=12 l=1
X27 a_n4931_n1200# a_n5131_n1264# a_n5189_n1200# w_n5389_n1497# sky130_fd_pr__pfet_g5v0d10v5 ad=1.74 pd=12.29 as=3.48 ps=24.58 w=12 l=1
X28 a_1261_n1200# a_1061_n1264# a_1003_n1200# w_n5389_n1497# sky130_fd_pr__pfet_g5v0d10v5 ad=1.74 pd=12.29 as=1.74 ps=12.29 w=12 l=1
X29 a_n545_n1200# a_n745_n1264# a_n803_n1200# w_n5389_n1497# sky130_fd_pr__pfet_g5v0d10v5 ad=1.74 pd=12.29 as=1.74 ps=12.29 w=12 l=1
X30 a_229_n1200# a_29_n1264# a_n29_n1200# w_n5389_n1497# sky130_fd_pr__pfet_g5v0d10v5 ad=1.74 pd=12.29 as=1.74 ps=12.29 w=12 l=1
X31 a_4099_n1200# a_3899_n1264# a_3841_n1200# w_n5389_n1497# sky130_fd_pr__pfet_g5v0d10v5 ad=1.74 pd=12.29 as=1.74 ps=12.29 w=12 l=1
X32 a_n3641_n1200# a_n3841_n1264# a_n3899_n1200# w_n5389_n1497# sky130_fd_pr__pfet_g5v0d10v5 ad=1.74 pd=12.29 as=1.74 ps=12.29 w=12 l=1
X33 a_n2351_n1200# a_n2551_n1264# a_n2609_n1200# w_n5389_n1497# sky130_fd_pr__pfet_g5v0d10v5 ad=1.74 pd=12.29 as=1.74 ps=12.29 w=12 l=1
X34 a_1003_n1200# a_803_n1264# a_745_n1200# w_n5389_n1497# sky130_fd_pr__pfet_g5v0d10v5 ad=1.74 pd=12.29 as=1.74 ps=12.29 w=12 l=1
X35 a_n3899_n1200# a_n4099_n1264# a_n4157_n1200# w_n5389_n1497# sky130_fd_pr__pfet_g5v0d10v5 ad=1.74 pd=12.29 as=1.74 ps=12.29 w=12 l=1
X36 a_n1061_n1200# a_n1261_n1264# a_n1319_n1200# w_n5389_n1497# sky130_fd_pr__pfet_g5v0d10v5 ad=1.74 pd=12.29 as=1.74 ps=12.29 w=12 l=1
X37 a_4357_n1200# a_4157_n1264# a_4099_n1200# w_n5389_n1497# sky130_fd_pr__pfet_g5v0d10v5 ad=1.74 pd=12.29 as=1.74 ps=12.29 w=12 l=1
X38 a_n803_n1200# a_n1003_n1264# a_n1061_n1200# w_n5389_n1497# sky130_fd_pr__pfet_g5v0d10v5 ad=1.74 pd=12.29 as=1.74 ps=12.29 w=12 l=1
X39 a_3067_n1200# a_2867_n1264# a_2809_n1200# w_n5389_n1497# sky130_fd_pr__pfet_g5v0d10v5 ad=1.74 pd=12.29 as=1.74 ps=12.29 w=12 l=1
.ends

.subckt sky130_fd_pr__cap_mim_m3_1_AALY9X c1_n5378_n3920# c1_5116_n3920# m3_8574_n3960#
+ c1_n1880_n3920# c1_1618_n3920# m3_n5418_n3960# m3_n1920_n3960# m3_5076_n3960# c1_n8876_n3920#
+ c1_8614_n3920# m3_1578_n3960# m3_n8916_n3960#
X0 c1_5116_n3920# m3_5076_n3960# sky130_fd_pr__cap_mim_m3_1 l=12 w=12
X1 c1_1618_n3920# m3_1578_n3960# sky130_fd_pr__cap_mim_m3_1 l=12 w=12
X2 c1_8614_n3920# m3_8574_n3960# sky130_fd_pr__cap_mim_m3_1 l=12 w=12
X3 c1_n5378_n3920# m3_n5418_n3960# sky130_fd_pr__cap_mim_m3_1 l=12 w=12
X4 c1_n8876_n3920# m3_n8916_n3960# sky130_fd_pr__cap_mim_m3_1 l=12 w=12
X5 c1_n5378_n3920# m3_n5418_n3960# sky130_fd_pr__cap_mim_m3_1 l=12 w=12
X6 c1_n1880_n3920# m3_n1920_n3960# sky130_fd_pr__cap_mim_m3_1 l=12 w=12
X7 c1_1618_n3920# m3_1578_n3960# sky130_fd_pr__cap_mim_m3_1 l=12 w=12
X8 c1_n8876_n3920# m3_n8916_n3960# sky130_fd_pr__cap_mim_m3_1 l=12 w=12
X9 c1_n5378_n3920# m3_n5418_n3960# sky130_fd_pr__cap_mim_m3_1 l=12 w=12
X10 c1_n8876_n3920# m3_n8916_n3960# sky130_fd_pr__cap_mim_m3_1 l=12 w=12
X11 c1_1618_n3920# m3_1578_n3960# sky130_fd_pr__cap_mim_m3_1 l=12 w=12
X12 c1_8614_n3920# m3_8574_n3960# sky130_fd_pr__cap_mim_m3_1 l=12 w=12
X13 c1_5116_n3920# m3_5076_n3960# sky130_fd_pr__cap_mim_m3_1 l=12 w=12
X14 c1_5116_n3920# m3_5076_n3960# sky130_fd_pr__cap_mim_m3_1 l=12 w=12
X15 c1_8614_n3920# m3_8574_n3960# sky130_fd_pr__cap_mim_m3_1 l=12 w=12
X16 c1_n1880_n3920# m3_n1920_n3960# sky130_fd_pr__cap_mim_m3_1 l=12 w=12
X17 c1_n1880_n3920# m3_n1920_n3960# sky130_fd_pr__cap_mim_m3_1 l=12 w=12
.ends

.subckt sky130_fd_pr__nfet_01v8_6H2JYD a_n73_n100# a_n33_n188# a_15_n100# a_n175_n274#
X0 a_15_n100# a_n33_n188# a_n73_n100# a_n175_n274# sky130_fd_pr__nfet_01v8 ad=0.29 pd=2.58 as=0.29 ps=2.58 w=1 l=0.15
.ends

.subckt sky130_fd_pr__nfet_g5v0d10v5_CTEUHA a_50_n200# a_n242_n422# a_n108_n200# a_n50_n288#
X0 a_50_n200# a_n50_n288# a_n108_n200# a_n242_n422# sky130_fd_pr__nfet_g5v0d10v5 ad=0.58 pd=4.58 as=0.58 ps=4.58 w=2 l=0.5
.ends

.subckt sky130_fd_pr__pfet_g5v0d10v5_HQ4STX w_n358_n597# a_n158_n300# a_n100_n364#
+ a_100_n300#
X0 a_100_n300# a_n100_n364# a_n158_n300# w_n358_n597# sky130_fd_pr__pfet_g5v0d10v5 ad=0.87 pd=6.58 as=0.87 ps=6.58 w=3 l=1
.ends

.subckt sky130_fd_pr__nfet_g5v0d10v5_UKVZ7J a_1519_n450# a_n803_n450# a_n2093_n450#
+ a_n2551_n505# a_1261_n450# a_29_n505# a_n1777_n505# a_n3067_n505# a_n1319_n450#
+ a_n287_n450# a_n1061_n450# a_2867_n505# a_n745_n505# a_2809_n450# a_803_n505# a_n2035_n505#
+ a_745_n450# a_n3383_n450# a_2551_n450# a_3125_n505# a_1835_n505# a_3067_n450# a_1777_n450#
+ a_n2609_n450# a_n229_n505# a_n1003_n505# a_n2351_n450# a_287_n505# a_2093_n505#
+ a_229_n450# a_n1577_n450# a_n3325_n505# a_2035_n450# a_1319_n505# a_n545_n450# a_1061_n505#
+ a_n2293_n505# a_n3517_n672# a_1003_n450# a_n1519_n505# a_n2867_n450# a_n487_n505#
+ a_3325_n450# a_n1261_n505# a_2609_n505# a_n29_n450# a_545_n505# a_487_n450# a_2351_n505#
+ a_2293_n450# a_n1835_n450# a_n3125_n450# a_1577_n505# a_n2809_n505#
X0 a_n2093_n450# a_n2293_n505# a_n2351_n450# a_n3517_n672# sky130_fd_pr__nfet_g5v0d10v5 ad=0.6525 pd=4.79 as=0.6525 ps=4.79 w=4.5 l=1
X1 a_229_n450# a_29_n505# a_n29_n450# a_n3517_n672# sky130_fd_pr__nfet_g5v0d10v5 ad=0.6525 pd=4.79 as=0.6525 ps=4.79 w=4.5 l=1
X2 a_n29_n450# a_n229_n505# a_n287_n450# a_n3517_n672# sky130_fd_pr__nfet_g5v0d10v5 ad=0.6525 pd=4.79 as=0.6525 ps=4.79 w=4.5 l=1
X3 a_3067_n450# a_2867_n505# a_2809_n450# a_n3517_n672# sky130_fd_pr__nfet_g5v0d10v5 ad=0.6525 pd=4.79 as=0.6525 ps=4.79 w=4.5 l=1
X4 a_n1319_n450# a_n1519_n505# a_n1577_n450# a_n3517_n672# sky130_fd_pr__nfet_g5v0d10v5 ad=0.6525 pd=4.79 as=0.6525 ps=4.79 w=4.5 l=1
X5 a_2551_n450# a_2351_n505# a_2293_n450# a_n3517_n672# sky130_fd_pr__nfet_g5v0d10v5 ad=0.6525 pd=4.79 as=0.6525 ps=4.79 w=4.5 l=1
X6 a_n3125_n450# a_n3325_n505# a_n3383_n450# a_n3517_n672# sky130_fd_pr__nfet_g5v0d10v5 ad=0.6525 pd=4.79 as=1.305 ps=9.58 w=4.5 l=1
X7 a_n545_n450# a_n745_n505# a_n803_n450# a_n3517_n672# sky130_fd_pr__nfet_g5v0d10v5 ad=0.6525 pd=4.79 as=0.6525 ps=4.79 w=4.5 l=1
X8 a_n287_n450# a_n487_n505# a_n545_n450# a_n3517_n672# sky130_fd_pr__nfet_g5v0d10v5 ad=0.6525 pd=4.79 as=0.6525 ps=4.79 w=4.5 l=1
X9 a_2293_n450# a_2093_n505# a_2035_n450# a_n3517_n672# sky130_fd_pr__nfet_g5v0d10v5 ad=0.6525 pd=4.79 as=0.6525 ps=4.79 w=4.5 l=1
X10 a_n2867_n450# a_n3067_n505# a_n3125_n450# a_n3517_n672# sky130_fd_pr__nfet_g5v0d10v5 ad=0.6525 pd=4.79 as=0.6525 ps=4.79 w=4.5 l=1
X11 a_n803_n450# a_n1003_n505# a_n1061_n450# a_n3517_n672# sky130_fd_pr__nfet_g5v0d10v5 ad=0.6525 pd=4.79 as=0.6525 ps=4.79 w=4.5 l=1