** sch_path: /home/tim/gits/frigate_analog/xschem/frigate_analog.sch
.subckt frigate_analog left_hgbw_opamp_p_to_gpio5_2[1] left_hgbw_opamp_p_to_gpio5_2[0] ibias_test_to_gpio1_2[1]
+ ibias_test_to_gpio1_2[0] right_lp_opamp_p_to_dac0 overvoltage_ena left_instramp_to_ulpcomp_p[1] left_instramp_to_ulpcomp_p[0] vdda0
+ right_lp_opamp_p_to_analog0 vssa0 left_hgbw_opamp_p_to_dac0 left_instramp_to_comp_p[1] left_instramp_to_comp_p[0] overvoltage_trim[3] overvoltage_trim[2]
+ overvoltage_trim[1] overvoltage_trim[0] vbg_test_to_gpio1_1[1] vbg_test_to_gpio1_1[0] vdda1 overvoltage_out left_instramp_to_adc0[1]
+ left_instramp_to_adc0[0] right_lp_opamp_p_to_amuxbusA left_hgbw_opamp_p_to_analog0 idac_to_gpio1_3[1] idac_to_gpio1_3[0]
+ left_instramp_p_to_left_rheostat1_out left_hgbw_opamp_p_to_amuxbusA vssa1 tempsense_ena left_instramp_to_gpio4_4[1] left_instramp_to_gpio4_4[0] idac_to_gpio1_2[1]
+ idac_to_gpio1_2[0] vdda2 left_instramp_to_analog1[1] left_instramp_to_analog1[0] left_instramp_p_to_right_rheostat2_out right_lp_opamp_p_to_sio0
+ adc_refh_to_gpio6_6[1] adc_refh_to_gpio6_6[0] vdda1_pwr_good left_hgbw_opamp_p_to_sio0 left_instramp_to_amuxbusB[1] left_instramp_to_amuxbusB[0]
+ right_lp_opamp_p_to_tempsense vssa2 dac_refh_to_gpio1_1[1] dac_refh_to_gpio1_1[0] vccd1_pwr_good right_instramp_to_ulpcomp_n[1] right_instramp_to_ulpcomp_n[0]
+ left_hgbw_opamp_p_to_left_vref vccd1 right_lp_opamp_p_to_left_vref adc_refl_to_gpio6_7[1] adc_refl_to_gpio6_7[0] vdda2_pwr_good right_lp_opamp_p_to_voutref
+ vssd1 left_hgbw_opamp_p_to_voutref right_instramp_to_comp_n[1] right_instramp_to_comp_n[0] dac_refl_to_gpio1_0[1]
+ dac_refl_to_gpio1_0[0] vccd2_pwr_good right_lp_opamp_p_to_gpio2_5[1] right_lp_opamp_p_to_gpio2_5[0] right_instramp_to_adc1[1] right_instramp_to_adc1[0]
+ left_hgbw_opamp_p_to_gpio2_1[1] left_hgbw_opamp_p_to_gpio2_1[0] vccd2 right_lp_opamp_to_ulpcomp_p[1] right_lp_opamp_to_ulpcomp_p[0] right_lp_opamp_n_to_dac1
+ right_instramp_to_analog0[1] right_instramp_to_analog0[0] vssd2 left_hgbw_opamp_n_to_gpio5_3[1] left_hgbw_opamp_n_to_gpio5_3[0] right_lp_opamp_to_comp_p[1]
+ right_lp_opamp_to_comp_p[0] right_instramp_to_amuxbusA[1] right_instramp_to_amuxbusA[0] right_lp_opamp_n_to_analog1 left_hgbw_opamp_n_to_dac1
+ right_lp_opamp_to_adc0[1] right_lp_opamp_to_adc0[0] right_lp_opamp_n_to_amuxbusB left_hgbw_opamp_n_to_analog1 right_instramp_to_gpio3_0[1]
+ right_instramp_to_gpio3_0[0] right_lp_opamp_to_gpio4_7[1] right_lp_opamp_to_gpio4_7[0] left_instramp_n_to_gpio5_7[1] left_instramp_n_to_gpio5_7[0]
+ right_instramp_n_to_left_rheostat2_out left_hgbw_opamp_n_to_amuxbusB idac_value[11] idac_value[10] idac_value[9] idac_value[8] idac_value[7] idac_value[6] idac_value[5]
+ idac_value[4] idac_value[3] idac_value[2] idac_value[1] idac_value[0] right_lp_opamp_to_gpio4_3[1] right_lp_opamp_to_gpio4_3[0]
+ left_instramp_ena right_lp_opamp_n_to_rheostat_tap left_instramp_n_to_analog1 left_instramp_n_to_right_rheostat2_out right_lp_opamp_to_analog1[1]
+ right_lp_opamp_to_analog1[0] idac_ena left_instramp_G1[4] left_instramp_G1[3] left_instramp_G1[2] left_instramp_G1[1] left_instramp_G1[0]
+ left_hgbw_opamp_n_to_rheostat_tap right_lp_opamp_n_to_sio1 left_instramp_n_to_amuxbusB right_lp_opamp_to_amuxbusB[1] right_lp_opamp_to_amuxbusB[0] audiodac_in
+ left_instramp_G2[4] left_instramp_G2[3] left_instramp_G2[2] left_instramp_G2[1] left_instramp_G2[0] right_lp_opamp_n_to_vbgtc left_instramp_n_to_sio1
+ left_hgbw_opamp_n_to_sio1 right_lp_opamp_to_gpio3_7[1] right_lp_opamp_to_gpio3_7[0] rdac0_ena left_hgbw_opamp_ena left_hgbw_opamp_n_to_vbgtc
+ left_instramp_n_to_right_vref right_lp_opamp_n_to_right_vref right_lp_opamp_to_gpio3_3[1] right_lp_opamp_to_gpio3_3[0] rdac0_value[11] rdac0_value[10]
+ rdac0_value[9] rdac0_value[8] rdac0_value[7] rdac0_value[6] rdac0_value[5] rdac0_value[4] rdac0_value[3] rdac0_value[2] rdac0_value[1]
+ rdac0_value[0] left_lp_opamp_ena left_hgbw_opamp_n_to_right_vref left_instramp_n_to_vinref right_lp_opamp_n_to_vinref
+ right_hgbw_opamp_to_ulpcomp_n[1] right_hgbw_opamp_to_ulpcomp_n[0] rdac1_ena left_rheostat1_b[7] left_rheostat1_b[6] left_rheostat1_b[5] left_rheostat1_b[4]
+ left_rheostat1_b[3] left_rheostat1_b[2] left_rheostat1_b[1] left_rheostat1_b[0] right_lp_opamp_n_to_gpio2_4[1] right_lp_opamp_n_to_gpio2_4[0]
+ left_hgbw_opamp_n_to_vinref rdac1_value[11] rdac1_value[10] rdac1_value[9] rdac1_value[8] rdac1_value[7] rdac1_value[6] rdac1_value[5] rdac1_value[4]
+ rdac1_value[3] rdac1_value[2] rdac1_value[1] rdac1_value[0] right_hgbw_opamp_to_comp_n[1] right_hgbw_opamp_to_comp_n[0] left_rheostat2_b[7]
+ left_rheostat2_b[6] left_rheostat2_b[5] left_rheostat2_b[4] left_rheostat2_b[3] left_rheostat2_b[2] left_rheostat2_b[1] left_rheostat2_b[0]
+ left_instramp_p_to_gpio5_6[1] left_instramp_p_to_gpio5_6[0] left_hgbw_opamp_n_to_gpio2_0[1] left_hgbw_opamp_n_to_gpio2_0[0] right_hgbw_opamp_p_to_gpio5_0[1]
+ right_hgbw_opamp_p_to_gpio5_0[0] right_hgbw_opamp_to_adc1[1] right_hgbw_opamp_to_adc1[0] adc0_ena left_lp_opamp_p_to_dac0 left_instramp_p_to_analog0
+ right_instramp_ena right_hgbw_opamp_p_to_dac0 right_hgbw_opamp_to_gpio4_6[1] right_hgbw_opamp_to_gpio4_6[0] adc0_reset left_instramp_p_to_amuxbusA
+ left_lp_opamp_p_to_analog0 right_instramp_G1[4] right_instramp_G1[3] right_instramp_G1[2] right_instramp_G1[1] right_instramp_G1[0]
+ right_hgbw_opamp_p_to_analog0 right_hgbw_opamp_to_gpio4_2[1] right_hgbw_opamp_to_gpio4_2[0] adc0_hold right_hgbw_opamp_p_to_amuxbusA left_instramp_p_to_sio0
+ right_instramp_G2[4] right_instramp_G2[3] right_instramp_G2[2] right_instramp_G2[1] right_instramp_G2[0] left_lp_opamp_p_to_amuxbusA
+ right_hgbw_opamp_to_analog0[1] right_hgbw_opamp_to_analog0[0] adc0_dac_val[15] adc0_dac_val[14] adc0_dac_val[13] adc0_dac_val[12] adc0_dac_val[11]
+ adc0_dac_val[10] adc0_dac_val[9] adc0_dac_val[8] adc0_dac_val[7] adc0_dac_val[6] adc0_dac_val[5] adc0_dac_val[4] adc0_dac_val[3] adc0_dac_val[2]
+ adc0_dac_val[1] adc0_dac_val[0] left_instramp_p_to_tempsense right_instramp_p_to_left_rheostat2_out right_hgbw_opamp_ena
+ right_instramp_p_to_right_rheostat1_out right_hgbw_opamp_to_amuxbusA[1] right_hgbw_opamp_to_amuxbusA[0] adc0_comp_out left_instramp_p_to_left_vref right_lp_opamp_ena
+ left_lp_opamp_p_to_sio0 right_hgbw_opamp_p_to_sio0 right_hgbw_opamp_to_gpio3_6[1] right_hgbw_opamp_to_gpio3_6[0] adc1_ena left_hgbw_opamp_p_to_tempsense
+ right_rheostat1_b[7] right_rheostat1_b[6] right_rheostat1_b[5] right_rheostat1_b[4] right_rheostat1_b[3] right_rheostat1_b[2] right_rheostat1_b[1]
+ right_rheostat1_b[0] left_instramp_p_to_voutref right_hgbw_opamp_p_to_left_vref right_hgbw_opamp_to_gpio3_2[1] right_hgbw_opamp_to_gpio3_2[0]
+ adc1_reset right_instramp_n_to_analog1 right_rheostat2_b[7] right_rheostat2_b[6] right_rheostat2_b[5] right_rheostat2_b[4]
+ right_rheostat2_b[3] right_rheostat2_b[2] right_rheostat2_b[1] right_rheostat2_b[0] left_lp_opamp_p_to_left_vref right_hgbw_opamp_p_to_voutref
+ left_hgbw_opamp_to_ulpcomp_p[1] left_hgbw_opamp_to_ulpcomp_p[0] right_instramp_n_to_amuxbusB left_lp_opamp_p_to_voutref right_hgbw_opamp_p_to_gpio2_3[1]
+ right_hgbw_opamp_p_to_gpio2_3[0] adc1_hold left_hgbw_opamp_to_comp_p[1] left_hgbw_opamp_to_comp_p[0] left_lp_opamp_n_to_gpio5_5[1] left_lp_opamp_n_to_gpio5_5[0]
+ right_instramp_n_to_sio1 right_hgbw_opamp_n_to_gpio5_1[1] right_hgbw_opamp_n_to_gpio5_1[0] adc1_dac_val[15] adc1_dac_val[14] adc1_dac_val[13]
+ adc1_dac_val[12] adc1_dac_val[11] adc1_dac_val[10] adc1_dac_val[9] adc1_dac_val[8] adc1_dac_val[7] adc1_dac_val[6] adc1_dac_val[5] adc1_dac_val[4]
+ adc1_dac_val[3] adc1_dac_val[2] adc1_dac_val[1] adc1_dac_val[0] left_hgbw_opamp_to_adc0[1] left_hgbw_opamp_to_adc0[0]
+ right_instramp_n_to_right_vref comp_ena left_lp_opamp_n_to_dac1 adc1_comp_out right_hgbw_opamp_n_to_dac1 left_hgbw_opamp_to_gpio4_5[1]
+ left_hgbw_opamp_to_gpio4_5[0] comp_trim[5] comp_trim[4] comp_trim[3] comp_trim[2] comp_trim[1] comp_trim[0] right_instramp_n_to_vinref
+ left_lp_opamp_n_to_analog1 right_hgbw_opamp_n_to_analog1 left_hgbw_opamp_to_gpio4_1[1] left_hgbw_opamp_to_gpio4_1[0] left_lp_opamp_n_to_amuxbusB
+ comp_hyst[1] comp_hyst[0] right_instramp_n_to_gpio2_6[1] right_instramp_n_to_gpio2_6[0] right_hgbw_opamp_n_to_amuxbusB
+ left_hgbw_opamp_to_analog1[1] left_hgbw_opamp_to_analog1[0] comp_out right_instramp_p_to_analog0 left_instramp_n_to_left_rheostat1_out
+ right_instramp_n_to_right_rheostat1_out left_hgbw_opamp_to_amuxbusB[1] left_hgbw_opamp_to_amuxbusB[0] ulpcomp_ena right_instramp_p_to_amuxbusA
+ right_hgbw_opamp_n_to_rheostat_tap left_lp_opamp_n_to_rheostat_tap left_hgbw_opamp_to_gpio3_5[1] left_hgbw_opamp_to_gpio3_5[0] right_instramp_p_to_tempsense
+ ulpcomp_clk left_lp_opamp_n_to_sio1 right_hgbw_opamp_n_to_sio1 left_hgbw_opamp_to_gpio3_1[1] left_hgbw_opamp_to_gpio3_1[0]
+ right_instramp_p_to_left_vref left_lp_opamp_n_to_vbgsc right_hgbw_opamp_n_to_vbgsc ulpcomp_out left_lp_opamp_to_ulpcomp_n[1] left_lp_opamp_to_ulpcomp_n[0]
+ right_instramp_p_to_voutref left_lp_opamp_n_to_right_vref right_hgbw_opamp_n_to_right_vref left_lp_opamp_to_comp_n[1] left_lp_opamp_to_comp_n[0]
+ right_instramp_p_to_gpio2_7[1] right_instramp_p_to_gpio2_7[0] left_lp_opamp_n_to_vinref right_hgbw_opamp_n_to_vinref left_lp_opamp_to_adc1[1]
+ left_lp_opamp_to_adc1[0] left_lp_opamp_p_to_gpio5_4[1] left_lp_opamp_p_to_gpio5_4[0] right_hgbw_opamp_n_to_gpio2_2[1] right_hgbw_opamp_n_to_gpio2_2[0]
+ bandgap_ena bandgap_trim[15] bandgap_trim[14] bandgap_trim[13] bandgap_trim[12] bandgap_trim[11] bandgap_trim[10] bandgap_trim[9]
+ bandgap_trim[8] bandgap_trim[7] bandgap_trim[6] bandgap_trim[5] bandgap_trim[4] bandgap_trim[3] bandgap_trim[2] bandgap_trim[1] bandgap_trim[0]
+ left_lp_opamp_to_gpio4_0[1] left_lp_opamp_to_gpio4_0[0] ldo_ena left_lp_opamp_to_analog0[1] left_lp_opamp_to_analog0[0] ibias_ena
+ left_lp_opamp_to_amuxbusA[1] left_lp_opamp_to_amuxbusA[0] ibias_src_ena[23] ibias_src_ena[22] ibias_src_ena[21] ibias_src_ena[20] ibias_src_ena[19]
+ ibias_src_ena[18] ibias_src_ena[17] ibias_src_ena[16] ibias_src_ena[15] ibias_src_ena[14] ibias_src_ena[13] ibias_src_ena[12] ibias_src_ena[11]
+ ibias_src_ena[10] ibias_src_ena[9] ibias_src_ena[8] ibias_src_ena[7] ibias_src_ena[6] ibias_src_ena[5] ibias_src_ena[4] ibias_src_ena[3]
+ ibias_src_ena[2] ibias_src_ena[1] ibias_src_ena[0] left_lp_opamp_to_gpio3_4[1] left_lp_opamp_to_gpio3_4[0] ibias_snk_ena[3] ibias_snk_ena[2]
+ ibias_snk_ena[1] ibias_snk_ena[0] ibias_ref_select por porb porb_h[1] porb_h[0] gpio1_0 user_voutref gpio4_0 ulpcomp_p_to_dac0 adc0_to_dac0
+ gpio4_1 gpio1_1 user_vinref ulpcomp_p_to_analog1 adc0_to_analog1 gpio4_2 user_left_vref gpio1_2 ulpcomp_p_to_sio0 adc0_to_vbgtc gpio4_3
+ gpio1_3 user_right_vref ulpcomp_p_to_vbgtc adc0_to_tempsense gpio1_4 gpio4_4 user_tempsense ulpcomp_p_to_tempsense adc0_to_left_vref
+ gpio4_5 gpio1_5 user_dac0 ulpcomp_p_to_left_vref adc0_to_voutref gpio4_6 gpio1_6 user_dac1 ulpcomp_p_to_voutref adc0_to_gpio6_4[1]
+ adc0_to_gpio6_4[0] gpio4_7 gpio1_7 user_vbgtc ulpcomp_p_to_gpio6_0[1] ulpcomp_p_to_gpio6_0[0] adc0_to_gpio1_3[1] adc0_to_gpio1_3[0] gpio5_0 gpio2_0
+ user_vbgsc ulpcomp_p_to_gpio1_7[1] ulpcomp_p_to_gpio1_7[0] adc1_to_dac1 user_ibias50 gpio5_1 gpio2_1 ulpcomp_n_to_dac1 adc1_to_analog0
+ user_ibias100 gpio5_2 gpio2_2 ulpcomp_n_to_analog0 adc1_to_vbgsc gpio5_3 gpio2_3 user_adc0 ulpcomp_n_to_sio1 adc1_to_right_vref gpio2_4 gpio5_4
+ user_adc1 ulpcomp_n_to_vbgsc adc1_to_vinref gpio5_5 gpio2_5 user_comp_n ulpcomp_n_to_right_vref adc1_to_gpio6_5[1] adc1_to_gpio6_5[0]
+ gpio5_6 gpio2_6 user_comp_p ulpcomp_n_to_vinref adc1_to_gpio1_2[1] adc1_to_gpio1_2[0] gpio5_7 gpio2_7 user_ulpcomp_n
+ ulpcomp_n_to_gpio6_1[1] ulpcomp_n_to_gpio6_1[0] sio0_connect[1] sio0_connect[0] gpio6_0 gpio3_0 user_ulpcomp_p ulpcomp_n_to_gpio1_6[1]
+ ulpcomp_n_to_gpio1_6[0] sio1_connect[1] sio1_connect[0] gpio6_1 gpio3_1 comp_p_to_dac0 user_gpio3_0_analog analog0_connect[1] analog0_connect[0] gpio6_2
+ gpio3_2 comp_p_to_analog1 user_gpio3_1_analog analog1_connect[1] analog1_connect[0] gpio6_3 gpio3_3 comp_p_to_sio0 user_gpio3_2_analog
+ vbgtc_to_user gpio3_4 gpio6_4 comp_p_to_vbgtc user_gpio3_3_analog vbgsc_to_user gpio6_5 gpio3_5 comp_p_to_tempsense user_gpio3_4_analog
+ user_to_comp_n[1] user_to_comp_n[0] gpio6_6 gpio3_6 comp_p_to_left_vref user_gpio3_5_analog user_to_comp_p[1] user_to_comp_p[0] gpio6_7 gpio3_7
+ comp_p_to_voutref user_gpio3_6_analog user_to_ulpcomp_n[1] user_to_ulpcomp_n[0] analog0 sio0 comp_p_to_gpio6_2[1] comp_p_to_gpio6_2[0]
+ user_gpio3_7_analog user_to_ulpcomp_p[1] user_to_ulpcomp_p[0] analog1 sio1 comp_p_to_gpio1_5[1] comp_p_to_gpio1_5[0] user_gpio4_0_analog
+ user_to_adc0[1] user_to_adc0[0] comp_n_to_dac1 user_gpio4_1_analog user_to_adc1[1] user_to_adc1[0] comp_n_to_analog0 user_gpio4_2_analog
+ dac0_to_user voutref user_gpio4_3_analog dac1_to_user vbg comp_n_to_sio1 ibias_lsxo vinref user_gpio4_4_analog tempsense_to_user
+ comp_n_to_vbgsc ibias_hsxo right_vref user_gpio4_5_analog right_vref_to_user comp_n_to_right_vref left_vref user_gpio4_6_analog left_vref_to_user
+ comp_n_to_vinref user_gpio4_7_analog vinref_to_user comp_n_to_gpio6_3[1] comp_n_to_gpio6_3[0] voutref_to_user comp_n_to_gpio1_4[1]
+ comp_n_to_gpio1_4[0] right_instramp_p_to_sio0 dac0_to_analog1 dac1_to_analog0 audiodac_out_to_analog1[1] audiodac_out_to_analog1[0]
+ audiodac_outb_to_analog0[1] audiodac_outb_to_analog0[0] audiodac_inb vddio vssio tempsense_sel ldo_ref_sel bandgap_sel brownout_vunder brownout_timeout
+ brownout_filt brownout_unfilt brownout_ena brownout_vtrip[2] brownout_vtrip[1] brownout_vtrip[0] brownout_otrip[2] brownout_otrip[1]
+ brownout_otrip[0] brownout_isrc_sel brownout_oneshot brownout_rc_ena brownout_rc_dis amuxbus_a_n amuxbus_b_n vccd0 vssd0
*.PININFO vdda0:B left_instramp_ena:I vssa0:B vdda1:B vssa1:B vdda2:B vssa2:B vccd1:B vssd1:B vccd2:B vssd2:B
*+ left_instramp_G1[4:0]:I left_instramp_G2[4:0]:I left_hgbw_opamp_ena:I left_lp_opamp_ena:I left_rheostat1_b[7:0]:I left_rheostat2_b[7:0]:I
*+ right_instramp_ena:I right_instramp_G1[4:0]:I right_instramp_G2[4:0]:I right_hgbw_opamp_ena:I right_lp_opamp_ena:I right_rheostat1_b[7:0]:I
*+ right_rheostat2_b[7:0]:I comp_ena:I comp_trim[5:0]:I comp_hyst[1:0]:I comp_out:O ulpcomp_ena:I ulpcomp_out:O ulpcomp_clk:I bandgap_ena:I
*+ bandgap_trim[15:0]:I ldo_ena:I ibias_ena:I ibias_src_ena[23:0]:I ibias_snk_ena[3:0]:I ibias_ref_select:I por:O porb:O porb_h[1:0]:O overvoltage_ena:I
*+ overvoltage_trim[3:0]:I overvoltage_out:O tempsense_ena:I vdda1_pwr_good:O vccd1_pwr_good:O vdda2_pwr_good:O vccd2_pwr_good:O idac_value[11:0]:I
*+ idac_ena:I audiodac_in:I rdac0_ena:I rdac0_value[11:0]:I rdac1_ena:I rdac1_value[11:0]:I adc0_ena:I adc0_reset:I adc0_hold:I
*+ adc0_dac_val[15:0]:I adc0_comp_out:O adc1_ena:I adc1_reset:I adc1_hold:I adc1_dac_val[15:0]:I adc1_comp_out:O ibias_test_to_gpio1_2[1:0]:I
*+ vbg_test_to_gpio1_1[1:0]:I idac_to_gpio1_3[1:0]:I idac_to_gpio1_2[1:0]:I adc_refh_to_gpio6_6[1:0]:I dac_refh_to_gpio1_1[1:0]:I adc_refl_to_gpio6_7[1:0]:I
*+ dac_refl_to_gpio1_0[1:0]:I right_lp_opamp_to_ulpcomp_p[1:0]:I right_lp_opamp_to_comp_p[1:0]:I right_lp_opamp_to_adc0[1:0]:I right_lp_opamp_to_gpio4_7[1:0]:I
*+ right_lp_opamp_to_analog1[1:0]:I right_lp_opamp_to_amuxbusB[1:0]:I right_lp_opamp_to_gpio3_7[1:0]:I right_lp_opamp_to_gpio3_3[1:0]:I
*+ right_lp_opamp_to_gpio4_3[1:0]:I right_hgbw_opamp_to_ulpcomp_n[1:0]:I right_hgbw_opamp_to_comp_n[1:0]:I right_hgbw_opamp_to_adc1[1:0]:I
*+ right_hgbw_opamp_to_gpio4_6[1:0]:I right_hgbw_opamp_to_analog0[1:0]:I right_hgbw_opamp_to_amuxbusA[1:0]:I right_hgbw_opamp_to_gpio3_6[1:0]:I
*+ right_hgbw_opamp_to_gpio3_2[1:0]:I right_hgbw_opamp_to_gpio4_2[1:0]:I left_hgbw_opamp_to_ulpcomp_p[1:0]:I left_hgbw_opamp_to_comp_p[1:0]:I
*+ left_hgbw_opamp_to_adc0[1:0]:I left_hgbw_opamp_to_gpio4_5[1:0]:I left_hgbw_opamp_to_analog1[1:0]:I left_hgbw_opamp_to_amuxbusB[1:0]:I
*+ left_hgbw_opamp_to_gpio3_5[1:0]:I left_hgbw_opamp_to_gpio3_1[1:0]:I left_hgbw_opamp_to_gpio4_1[1:0]:I left_lp_opamp_to_ulpcomp_n[1:0]:I
*+ left_lp_opamp_to_comp_n[1:0]:I left_lp_opamp_to_adc1[1:0]:I left_lp_opamp_to_analog0[1:0]:I left_lp_opamp_to_amuxbusA[1:0]:I left_lp_opamp_to_gpio3_4[1:0]:I
*+ left_lp_opamp_to_gpio4_0[1:0]:I right_lp_opamp_p_to_dac0:I right_lp_opamp_p_to_analog0:I right_lp_opamp_p_to_amuxbusA:I left_instramp_p_to_left_rheostat1_out:I
*+ right_lp_opamp_p_to_tempsense:I right_lp_opamp_p_to_left_vref:I right_lp_opamp_p_to_voutref:I right_lp_opamp_p_to_gpio2_5[1:0]:I right_lp_opamp_p_to_sio0:I
*+ right_lp_opamp_n_to_dac1:I right_lp_opamp_n_to_analog1:I right_lp_opamp_n_to_amuxbusB:I right_instramp_n_to_left_rheostat2_out:I right_lp_opamp_n_to_vbgtc:I
*+ right_lp_opamp_n_to_right_vref:I right_lp_opamp_n_to_vinref:I right_lp_opamp_n_to_gpio2_4[1:0]:I right_lp_opamp_n_to_sio1:I right_hgbw_opamp_p_to_dac0:I
*+ right_hgbw_opamp_p_to_analog0:I right_hgbw_opamp_p_to_amuxbusA:I right_instramp_p_to_right_rheostat1_out:I right_hgbw_opamp_p_to_left_vref:I
*+ right_hgbw_opamp_p_to_voutref:I right_hgbw_opamp_p_to_gpio2_3[1:0]:I right_hgbw_opamp_p_to_sio0:I right_lp_opamp_n_to_rheostat_tap:I
*+ right_hgbw_opamp_p_to_gpio5_0[1:0]:I right_hgbw_opamp_n_to_dac1:I right_hgbw_opamp_n_to_analog1:I right_hgbw_opamp_n_to_amuxbusB:I
*+ right_instramp_n_to_right_rheostat1_out:I right_hgbw_opamp_n_to_vbgsc:I right_hgbw_opamp_n_to_right_vref:I right_hgbw_opamp_n_to_vinref:I
*+ right_hgbw_opamp_n_to_gpio2_2[1:0]:I right_hgbw_opamp_n_to_sio1:I right_hgbw_opamp_n_to_rheostat_tap:I right_hgbw_opamp_n_to_gpio5_1[1:0]:I
*+ left_hgbw_opamp_p_to_gpio5_2[1:0]:I left_hgbw_opamp_p_to_dac0:I left_hgbw_opamp_p_to_analog0:I left_hgbw_opamp_p_to_amuxbusA:I
*+ left_instramp_p_to_right_rheostat2_out:I left_hgbw_opamp_p_to_sio0:I left_hgbw_opamp_p_to_tempsense:I left_hgbw_opamp_p_to_left_vref:I left_hgbw_opamp_p_to_voutref:I
*+ left_hgbw_opamp_p_to_gpio2_1[1:0]:I left_hgbw_opamp_n_to_gpio5_3[1:0]:I left_hgbw_opamp_n_to_dac1:I left_hgbw_opamp_n_to_analog1:I left_hgbw_opamp_n_to_amuxbusB:I
*+ left_instramp_n_to_right_rheostat2_out:I left_hgbw_opamp_n_to_rheostat_tap:I left_hgbw_opamp_n_to_sio1:I left_hgbw_opamp_n_to_vbgtc:I left_hgbw_opamp_n_to_right_vref:I
*+ left_hgbw_opamp_n_to_vinref:I left_hgbw_opamp_n_to_gpio2_0[1:0]:I left_lp_opamp_p_to_gpio5_4[1:0]:I left_lp_opamp_p_to_dac0:I left_lp_opamp_p_to_analog0:I
*+ left_lp_opamp_p_to_amuxbusA:I right_instramp_p_to_left_rheostat2_out:I left_lp_opamp_p_to_sio0:I left_lp_opamp_p_to_left_vref:I left_lp_opamp_p_to_voutref:I
*+ left_lp_opamp_n_to_gpio5_5[1:0]:I left_lp_opamp_n_to_dac1:I left_lp_opamp_n_to_analog1:I left_lp_opamp_n_to_amuxbusB:I left_instramp_n_to_left_rheostat1_out:I
*+ left_lp_opamp_n_to_rheostat_tap:I left_lp_opamp_n_to_sio1:I left_lp_opamp_n_to_vbgsc:I left_lp_opamp_n_to_right_vref:I left_lp_opamp_n_to_vinref:I
*+ left_instramp_to_ulpcomp_p[1:0]:I left_instramp_to_comp_p[1:0]:I left_instramp_to_adc0[1:0]:I left_instramp_to_gpio4_4[1:0]:I left_instramp_to_analog1[1:0]:I
*+ left_instramp_to_amuxbusB[1:0]:I right_instramp_to_ulpcomp_n[1:0]:I right_instramp_to_comp_n[1:0]:I right_instramp_to_adc1[1:0]:I right_instramp_to_analog0[1:0]:I
*+ right_instramp_to_amuxbusA[1:0]:I right_instramp_to_gpio3_0[1:0]:I left_instramp_n_to_gpio5_7[1:0]:I left_instramp_n_to_analog1:I left_instramp_n_to_amuxbusB:I
*+ left_instramp_n_to_sio1:I left_instramp_n_to_right_vref:I left_instramp_n_to_vinref:I left_instramp_p_to_gpio5_6[1:0]:I left_instramp_p_to_analog0:I
*+ left_instramp_p_to_amuxbusA:I left_instramp_p_to_sio0:I left_instramp_p_to_tempsense:I left_instramp_p_to_left_vref:I left_instramp_p_to_voutref:I
*+ right_instramp_n_to_analog1:I right_instramp_n_to_amuxbusB:I right_instramp_n_to_sio1:I right_instramp_n_to_right_vref:I right_instramp_n_to_vinref:I
*+ right_instramp_n_to_gpio2_6[1:0]:I right_instramp_p_to_analog0:I right_instramp_p_to_amuxbusA:I right_instramp_p_to_tempsense:I right_instramp_p_to_left_vref:I
*+ right_instramp_p_to_voutref:I right_instramp_p_to_gpio2_7[1:0]:I ulpcomp_p_to_dac0:I ulpcomp_p_to_analog1:I ulpcomp_p_to_sio0:I ulpcomp_p_to_vbgtc:I
*+ ulpcomp_p_to_tempsense:I ulpcomp_p_to_left_vref:I ulpcomp_p_to_voutref:I ulpcomp_p_to_gpio6_0[1:0]:I ulpcomp_p_to_gpio1_7[1:0]:I ulpcomp_n_to_dac1:I
*+ ulpcomp_n_to_analog0:I ulpcomp_n_to_sio1:I ulpcomp_n_to_vbgsc:I ulpcomp_n_to_right_vref:I ulpcomp_n_to_vinref:I ulpcomp_n_to_gpio6_1[1:0]:I
*+ ulpcomp_n_to_gpio1_6[1:0]:I comp_p_to_dac0:I comp_p_to_analog1:I comp_p_to_sio0:I comp_p_to_vbgtc:I comp_p_to_tempsense:I comp_p_to_left_vref:I
*+ comp_p_to_voutref:I comp_p_to_gpio6_2[1:0]:I comp_p_to_gpio1_5[1:0]:I comp_n_to_dac1:I comp_n_to_analog0:I comp_n_to_sio1:I comp_n_to_vbgsc:I
*+ comp_n_to_right_vref:I comp_n_to_vinref:I comp_n_to_gpio6_3[1:0]:I comp_n_to_gpio1_4[1:0]:I adc0_to_dac0:I adc0_to_analog1:I adc0_to_vbgtc:I
*+ adc0_to_left_vref:I adc0_to_voutref:I adc0_to_gpio6_4[1:0]:I adc0_to_gpio1_3[1:0]:I adc1_to_dac1:I adc1_to_analog0:I adc1_to_vbgsc:I
*+ adc1_to_right_vref:I adc1_to_vinref:I adc1_to_gpio6_5[1:0]:I adc1_to_gpio1_2[1:0]:I sio0_connect[1:0]:I sio1_connect[1:0]:I analog0_connect[1:0]:I
*+ analog1_connect[1:0]:I vbgtc_to_user:I vbgsc_to_user:I user_to_comp_n[1:0]:I user_to_comp_p[1:0]:I user_to_ulpcomp_n[1:0]:I user_to_ulpcomp_p[1:0]:I
*+ user_to_adc0[1:0]:I user_to_adc1[1:0]:I dac0_to_user:I dac1_to_user:I tempsense_to_user:I right_vref_to_user:I left_vref_to_user:I vinref_to_user:I
*+ voutref_to_user:I adc0_to_tempsense:I user_adc0:I user_adc1:I user_comp_n:I user_comp_p:I user_ulpcomp_n:I user_ulpcomp_p:I user_voutref:O
*+ user_vinref:O user_left_vref:O user_right_vref:O user_tempsense:O user_dac0:O user_dac1:O user_vbgtc:O user_vbgsc:O user_gpio3_0_analog:B
*+ user_gpio3_1_analog:B user_gpio3_2_analog:B user_gpio3_3_analog:B user_gpio3_4_analog:B user_gpio3_5_analog:B user_gpio3_6_analog:B
*+ user_gpio3_7_analog:B user_gpio4_0_analog:B user_gpio4_1_analog:B user_gpio4_2_analog:B user_gpio4_3_analog:B user_gpio4_4_analog:B
*+ user_gpio4_5_analog:B user_gpio4_6_analog:B user_gpio4_7_analog:B gpio1_0:B gpio1_1:B gpio1_2:B gpio1_3:B gpio1_4:B gpio1_5:B gpio1_6:B gpio1_7:B
*+ gpio2_0:B gpio2_1:B gpio2_2:B gpio2_3:B gpio2_4:B gpio2_5:B gpio2_6:B gpio2_7:B gpio3_0:B gpio3_1:B gpio3_2:B gpio3_3:B gpio3_4:B gpio3_5:B
*+ gpio3_6:B gpio3_7:B gpio4_0:B gpio4_1:B gpio4_2:B gpio4_3:B gpio4_4:B gpio4_5:B gpio4_6:B gpio4_7:B gpio5_0:B gpio5_1:B gpio5_2:B gpio5_3:B
*+ gpio5_4:B gpio5_5:B gpio5_6:B gpio5_7:B gpio6_0:B gpio6_1:B gpio6_2:B gpio6_3:B gpio6_4:B gpio6_5:B gpio6_6:B gpio6_7:B analog0:B analog1:B
*+ sio0:B sio1:B voutref:I vinref:I right_vref:I left_vref:I vbg:O ibias_lsxo:O ibias_hsxo:O user_ibias50:O user_ibias100:O vccd0:B vssd0:B
*+ amuxbus_a_n:B amuxbus_b_n:B right_instramp_p_to_sio0:I dac0_to_analog1:I dac1_to_analog0:I audiodac_out_to_analog1[1:0]:I
*+ audiodac_outb_to_analog0[1:0]:I audiodac_inb:I bandgap_sel:I vddio:B vssio:B ldo_ref_sel:I tempsense_sel:I brownout_ena:I brownout_vtrip[2:0]:I
*+ brownout_otrip[2:0]:I brownout_isrc_sel:I brownout_oneshot:I brownout_rc_ena:I brownout_rc_dis:I brownout_vunder:O brownout_timeout:O brownout_filt:O
*+ brownout_unfilt:O
X1 vbgpwr vssio bandgap_trim[0] vcmosref net1 bandgap_trim[1] bandgap_trim[2] bandgap_trim[3] vccd0 vssd0 bandgap_ena vbgsc vbgtc
+ sky130_ak_ip__cmos_vref
x2 vccd0 vdda0 vssa0 comp_p comp_out comp_n comp_ena comp_hyst[1] comp_hyst[0] comp_trim[5] comp_trim[4] comp_trim[3] comp_trim[2]
+ comp_trim[1] comp_trim[0] ibias_comp vssd0 sky130_ak_ip__comparator
x3 vddio vbgpwr vssio ldo_ena vbg ldo_ref_sel vccd0 vssd0 sky130_am_ip__ldo_01v8
x9 adc1_dac_val[0] adc1_dac_val[1] adc1_dac_val[2] adc1_dac_val[3] adc1_dac_val[4] adc1_dac_val[5] adc1_dac_val[6] adc1_dac_val[7]
+ adc1_dac_val[8] adc1_dac_val[9] vdda0 vccd0 vssd0 vssa0 adc_vrefH adc_vrefL net27 adc1_reset net24 adc1_dac_val[10] adc1_dac_val[11] left_vref
+ vinref adc1 adc1_hold sky130_ef_ip__cdac3v_12bit
x10 vccd0 vssa0 vssd0 vdda0 left_rheostat1_b[0] left_rheostat1_in left_rheostat1_b[1] left_rheostat1_b[2] left_rheostat1_b[3]
+ left_rheostat1_tap left_rheostat1_b[4] left_rheostat1_b[5] left_rheostat1_b[6] left_rheostat1_b[7] left_hgbw_opamp_out sky130_ef_ip__rheostat_8bit
x12 vccd0 vdda0 ulpcomp_ena ulpcomp_out ulpcomp_n ulpcomp_p ulpcomp_clk vssd0 vssa0 sky130_icrg_ip__ulpcomp2
x14 net2 vccd0 vssd0 vbg tempsense_ena net3 sky130_od_ip__tempsensor_ext_vp
x17 overvoltage_out overvoltage_trim[0] vssd0 vssa0 vdda0 vccd0 ibias_ov vbg overvoltage_ena overvoltage_trim[3]
+ overvoltage_trim[2] overvoltage_trim[1] sky130_vbl_ip__overvoltage
x18 vssa1 vssa1 vssa1 vssa1 vssa1 vssa1 net9 net10 net11 net12 net13 net14 porb_h[0] net22 vccd0 vccd0 vdda1 vdda1_pwr_good
+ vccd1_pwr_good vccd1 vssa1 vssd0 vssd1 sky130_fd_io__top_pwrdetv2
x20 vccd0 vssa0 vssd0 vdda0 left_rheostat2_b[0] left_rheostat2_in left_rheostat2_b[1] left_rheostat2_b[2] left_rheostat2_b[3]
+ left_rheostat2_tap left_rheostat2_b[4] left_rheostat2_b[5] left_rheostat2_b[6] left_rheostat2_b[7] left_lp_opamp_out sky130_ef_ip__rheostat_8bit
x22 vccd0 vssa0 vssd0 vdda0 right_rheostat1_b[0] right_rheostat1_in right_rheostat1_b[1] right_rheostat1_b[2] right_rheostat1_b[3]
+ right_rheostat1_tap right_rheostat1_b[4] right_rheostat1_b[5] right_rheostat1_b[6] right_rheostat1_b[7] right_hgbw_opamp_out
+ sky130_ef_ip__rheostat_8bit
x24 vccd0 vssa0 vssd0 vdda0 right_rheostat2_b[0] right_rheostat2_in right_rheostat2_b[1] right_rheostat2_b[2] right_rheostat2_b[3]
+ right_rheostat2_tap right_rheostat2_b[4] right_rheostat2_b[5] right_rheostat2_b[6] right_rheostat2_b[7] right_lp_opamp_out
+ sky130_ef_ip__rheostat_8bit
x27 vssa2 vssa2 vssa2 vssa2 vssa2 vssa2 net15 net16 net17 net18 net19 net20 porb_h[0] net21 vccd0 vccd0 vdda2 vdda2_pwr_good
+ vccd2_pwr_good vccd2 vssa2 vssd0 vssd2 sky130_fd_io__top_pwrdetv2
x13 vccd0 vssa0 vssd0 vdda0 rdac1_value[0] dac_vrefH rdac1_value[1] rdac1_value[2] rdac1_value[3] dac1 rdac1_value[4]
+ rdac1_value[5] rdac1_ena rdac1_value[6] rdac1_value[7] dac_vrefL sky130_ef_ip__rdac3v_8bit
x29 vccd0 vssa0 vssd0 vdda0 rdac0_value[0] dac_vrefH rdac0_value[1] rdac0_value[2] rdac0_value[3] dac0 rdac0_value[4]
+ rdac0_value[5] rdac0_ena rdac0_value[6] rdac0_value[7] dac_vrefL sky130_ef_ip__rdac3v_8bit
x30 adc0_dac_val[0] adc0_dac_val[1] adc0_dac_val[2] adc0_dac_val[3] adc0_dac_val[4] adc0_dac_val[5] adc0_dac_val[6]
+ adc0_dac_val[7] adc0_dac_val[8] adc0_dac_val[9] vdda0 vccd0 vssd0 vssa0 adc_vrefH adc_vrefL net26 adc0_reset net23 adc0_dac_val[10]
+ adc0_dac_val[11] right_vref voutref adc0 adc0_hold sky130_ef_ip__cdac3v_12bit
x33 vdda0 vccd0 vssd0 vssa0 adc1 comp_n ulpcomp_n right_instramp_to_ulpcomp_n[1] right_instramp_to_ulpcomp_n[0] right_instramp_out
+ right_hgbw_opamp_to_ulpcomp_n[1] right_hgbw_opamp_to_ulpcomp_n[0] right_lp_opamp_to_ulpcomp_p[1] right_lp_opamp_to_ulpcomp_p[0] left_lp_opamp_to_ulpcomp_n[1]
+ left_lp_opamp_to_ulpcomp_n[0] left_hgbw_opamp_to_ulpcomp_p[1] left_hgbw_opamp_to_ulpcomp_p[0] left_instramp_to_ulpcomp_p[1] left_instramp_to_ulpcomp_p[0]
+ right_hgbw_opamp_out right_instramp_to_comp_n[1] right_instramp_to_comp_n[0] right_hgbw_opamp_to_comp_n[1] right_hgbw_opamp_to_comp_n[0]
+ right_lp_opamp_to_comp_p[1] right_lp_opamp_to_comp_p[0] left_lp_opamp_to_comp_n[1] left_lp_opamp_to_comp_n[0] left_hgbw_opamp_to_comp_p[1]
+ left_hgbw_opamp_to_comp_p[0] left_instramp_to_comp_p[1] left_instramp_to_comp_p[0] right_lp_opamp_out right_instramp_to_adc1[1] right_instramp_to_adc1[0]
+ right_hgbw_opamp_to_adc1[1] right_hgbw_opamp_to_adc1[0] right_lp_opamp_to_adc0[1] right_lp_opamp_to_adc0[0] left_lp_opamp_to_adc1[1] left_lp_opamp_to_adc1[0]
+ left_hgbw_opamp_to_adc0[1] left_hgbw_opamp_to_adc0[0] left_lp_opamp_out left_instramp_to_adc0[1] left_instramp_to_adc0[0] left_hgbw_opamp_out
+ left_instramp_out adc0 ulpcomp_p comp_p switch_array_18
x34 vdda0 vccd0 vssd0 vssa0 right_instramp_to_amuxbusA[1] right_instramp_to_amuxbusA[0] right_instramp_out
+ left_hgbw_opamp_to_amuxbusB[1] left_hgbw_opamp_to_amuxbusB[0] left_lp_opamp_to_amuxbusA[1] left_lp_opamp_to_amuxbusA[0] right_lp_opamp_to_amuxbusB[1]
+ right_lp_opamp_to_amuxbusB[0] right_hgbw_opamp_to_amuxbusA[1] right_hgbw_opamp_to_amuxbusA[0] left_instramp_to_amuxbusB[1] left_instramp_to_amuxbusB[0]
+ right_hgbw_opamp_out right_instramp_to_analog0[1] right_instramp_to_analog0[0] left_hgbw_opamp_to_analog1[1] left_hgbw_opamp_to_analog1[0]
+ left_lp_opamp_to_analog0[1] left_lp_opamp_to_analog0[0] right_lp_opamp_to_analog1[1] right_lp_opamp_to_analog1[0] right_hgbw_opamp_to_analog0[1]
+ right_hgbw_opamp_to_analog0[0] left_instramp_to_analog1[1] left_instramp_to_analog1[0] right_lp_opamp_out left_lp_opamp_out left_hgbw_opamp_out
+ left_instramp_out analog1 analog1_core analog0 analog0_core amuxbus_b_n amuxbus_a_n analog1_connect[1] analog1_connect[0] analog0_connect[1]
+ analog0_connect[0] switch_array_14
x35 vdda0 vccd0 vssd0 vssa0 gpio4_4 left_instramp_to_gpio4_4[1] left_instramp_to_gpio4_4[0] left_instramp_out
+ left_hgbw_opamp_to_gpio4_5[1] left_hgbw_opamp_to_gpio4_5[0] right_lp_opamp_to_gpio4_7[1] right_lp_opamp_to_gpio4_7[0] right_hgbw_opamp_to_gpio4_6[1]
+ right_hgbw_opamp_to_gpio4_6[0] gpio4_5 left_hgbw_opamp_out gpio4_7 right_lp_opamp_out gpio4_6 right_hgbw_opamp_out switch_array_4
x36 vdda0 vccd0 vssd0 vssa0 gpio4_0 left_lp_opamp_to_gpio4_0[1] left_lp_opamp_to_gpio4_0[0] left_lp_opamp_out
+ left_hgbw_opamp_to_gpio4_1[1] left_hgbw_opamp_to_gpio4_1[0] right_lp_opamp_to_gpio4_3[1] right_lp_opamp_to_gpio4_3[0] right_hgbw_opamp_to_gpio4_2[1]
+ right_hgbw_opamp_to_gpio4_2[0] gpio4_1 left_hgbw_opamp_out gpio4_3 right_lp_opamp_out gpio4_2 right_hgbw_opamp_out switch_array_4
x37 vdda0 vccd0 vssd0 vssa0 gpio3_4 left_lp_opamp_to_gpio3_4[1] left_lp_opamp_to_gpio3_4[0] left_lp_opamp_out
+ left_hgbw_opamp_to_gpio3_5[1] left_hgbw_opamp_to_gpio3_5[0] right_lp_opamp_to_gpio3_7[1] right_lp_opamp_to_gpio3_7[0] right_hgbw_opamp_to_gpio3_6[1]
+ right_hgbw_opamp_to_gpio3_6[0] gpio3_5 left_hgbw_opamp_out gpio3_7 right_lp_opamp_out gpio3_6 right_hgbw_opamp_out switch_array_4
x38 vdda0 vccd0 vssd0 vssa0 gpio3_3 right_lp_opamp_to_gpio3_3[1] right_lp_opamp_to_gpio3_3[0] right_lp_opamp_out